*SPEF "ieee 1481-1999"
*DESIGN "mult_sec_16"
*DATE "11:11:11 Fri 11 11, 1111"
*VENDOR "OpenRCX"
*PROGRAM "Parallel Extraction"
*VERSION "1.0"
*DESIGN_FLOW "NAME_SCOPE LOCAL" "PIN_CAP NONE"
*DIVIDER /
*DELIMITER :
*BUS_DELIMITER []
*T_UNIT 1 NS
*C_UNIT 1 PF
*R_UNIT 1 OHM
*L_UNIT 1 HENRY

*NAME_MAP
*3 clk
*4 done
*5 mcand[0]
*6 mcand[10]
*7 mcand[11]
*8 mcand[12]
*9 mcand[13]
*10 mcand[14]
*11 mcand[15]
*12 mcand[1]
*13 mcand[2]
*14 mcand[3]
*15 mcand[4]
*16 mcand[5]
*17 mcand[6]
*18 mcand[7]
*19 mcand[8]
*20 mcand[9]
*21 mplier[0]
*22 mplier[10]
*23 mplier[11]
*24 mplier[12]
*25 mplier[13]
*26 mplier[14]
*27 mplier[15]
*28 mplier[1]
*29 mplier[2]
*30 mplier[3]
*31 mplier[4]
*32 mplier[5]
*33 mplier[6]
*34 mplier[7]
*35 mplier[8]
*36 mplier[9]
*37 product[0]
*38 product[10]
*39 product[11]
*40 product[12]
*41 product[13]
*42 product[14]
*43 product[15]
*44 product[16]
*45 product[17]
*46 product[18]
*47 product[19]
*48 product[1]
*49 product[20]
*50 product[21]
*51 product[22]
*52 product[23]
*53 product[24]
*54 product[25]
*55 product[26]
*56 product[27]
*57 product[28]
*58 product[29]
*59 product[2]
*60 product[30]
*61 product[31]
*62 product[3]
*63 product[4]
*64 product[5]
*65 product[6]
*66 product[7]
*67 product[8]
*68 product[9]
*69 st
*70 _000_
*71 _001_
*72 _002_
*73 _003_
*74 _004_
*75 _005_
*76 _006_
*77 _007_
*78 _008_
*79 _009_
*80 _010_
*81 _011_
*82 _012_
*83 _013_
*84 _014_
*85 _015_
*86 _016_
*87 _017_
*88 _018_
*89 _019_
*90 _020_
*91 _021_
*92 _022_
*93 _023_
*94 _024_
*95 _025_
*96 _026_
*97 _027_
*98 _028_
*99 _029_
*100 _030_
*101 _031_
*102 _032_
*103 _033_
*104 _034_
*105 _035_
*106 _036_
*107 _037_
*108 _038_
*109 _039_
*110 _040_
*111 _041_
*112 _042_
*113 _043_
*114 _044_
*115 _045_
*116 _046_
*117 _047_
*118 _048_
*119 _049_
*120 _050_
*121 _051_
*122 _052_
*123 _053_
*124 _054_
*125 _055_
*126 _056_
*127 _057_
*128 _058_
*129 _059_
*130 _060_
*131 _061_
*132 _062_
*133 _063_
*134 _064_
*135 _065_
*136 _066_
*137 _067_
*138 _068_
*139 _069_
*140 _070_
*141 _071_
*142 _072_
*143 _073_
*144 _074_
*145 _075_
*146 _076_
*147 _077_
*148 _078_
*149 _079_
*150 _080_
*151 _081_
*152 _082_
*153 _083_
*154 _084_
*155 _085_
*156 _086_
*157 _087_
*158 _088_
*159 _089_
*160 _090_
*161 _091_
*162 _092_
*163 _093_
*164 _094_
*165 _095_
*166 _096_
*167 _097_
*168 _098_
*169 _099_
*170 _100_
*171 _101_
*172 _102_
*173 _103_
*174 _104_
*175 _105_
*176 _106_
*177 _107_
*178 _108_
*179 _109_
*180 _110_
*181 _111_
*182 _112_
*183 _113_
*184 _114_
*185 _115_
*186 _116_
*187 _117_
*188 _118_
*189 _119_
*190 _120_
*191 _121_
*192 _122_
*193 _123_
*194 _124_
*195 _125_
*196 _126_
*197 _127_
*198 _128_
*199 _129_
*200 _130_
*201 _131_
*202 _132_
*203 _133_
*204 _134_
*205 _135_
*206 _136_
*207 _137_
*208 _138_
*209 _139_
*210 _140_
*211 _141_
*212 _142_
*213 _143_
*214 _144_
*215 _145_
*216 _146_
*217 _147_
*218 _148_
*219 _149_
*220 _150_
*221 _151_
*222 _152_
*223 _153_
*224 _154_
*225 _155_
*226 _156_
*227 _157_
*228 _158_
*229 _159_
*230 _160_
*231 _161_
*232 _162_
*233 _163_
*234 _164_
*235 _165_
*236 _166_
*237 _167_
*238 _168_
*239 _169_
*240 _170_
*241 _171_
*242 _172_
*243 _173_
*244 _174_
*245 _175_
*246 _176_
*247 _177_
*248 _178_
*249 _179_
*250 _180_
*251 _181_
*252 _182_
*253 _183_
*254 _184_
*255 _185_
*256 _186_
*257 _187_
*258 _188_
*259 _189_
*260 _190_
*261 _191_
*262 _192_
*263 _193_
*264 _194_
*265 _195_
*266 _196_
*267 _197_
*268 _198_
*269 _199_
*270 _200_
*271 _201_
*272 _202_
*273 _203_
*274 _204_
*275 _205_
*276 _206_
*277 _207_
*278 _208_
*279 _209_
*280 _210_
*281 _211_
*282 _212_
*283 _213_
*284 _214_
*285 _215_
*286 _216_
*287 _217_
*288 _218_
*289 _219_
*290 _220_
*291 _221_
*292 _222_
*293 _223_
*294 _224_
*295 _225_
*296 _226_
*297 _227_
*298 _228_
*299 _229_
*300 _230_
*301 _231_
*302 _232_
*303 _233_
*304 _234_
*305 _235_
*306 _236_
*307 _237_
*308 _238_
*309 acu_act\[32\]
*310 clknet_0_clk
*311 clknet_2_0__leaf_clk
*312 clknet_2_1__leaf_clk
*313 clknet_2_2__leaf_clk
*314 clknet_2_3__leaf_clk
*315 cnt_act\[0\]
*316 cnt_act\[1\]
*317 cnt_act\[2\]
*318 cnt_act\[3\]
*319 cnt_act\[4\]
*320 estado_act\[0\]
*321 estado_act\[1\]
*322 net1
*323 net10
*324 net11
*325 net12
*326 net13
*327 net14
*328 net15
*329 net16
*330 net17
*331 net18
*332 net19
*333 net2
*334 net20
*335 net21
*336 net22
*337 net23
*338 net24
*339 net25
*340 net26
*341 net27
*342 net28
*343 net29
*344 net3
*345 net30
*346 net31
*347 net32
*348 net33
*349 net34
*350 net35
*351 net36
*352 net37
*353 net38
*354 net39
*355 net4
*356 net40
*357 net41
*358 net42
*359 net43
*360 net44
*361 net45
*362 net46
*363 net47
*364 net48
*365 net49
*366 net5
*367 net50
*368 net51
*369 net52
*370 net53
*371 net54
*372 net55
*373 net56
*374 net57
*375 net58
*376 net59
*377 net6
*378 net60
*379 net61
*380 net62
*381 net63
*382 net64
*383 net65
*384 net66
*385 net67
*386 net68
*387 net69
*388 net7
*389 net70
*390 net71
*391 net72
*392 net73
*393 net74
*394 net75
*395 net76
*396 net77
*397 net78
*398 net79
*399 net8
*400 net80
*401 net81
*402 net82
*403 net83
*404 net84
*405 net85
*406 net86
*407 net87
*408 net88
*409 net9
*410 FILLER_0_0_111
*411 FILLER_0_0_119
*412 FILLER_0_0_13
*413 FILLER_0_0_133
*414 FILLER_0_0_139
*415 FILLER_0_0_66
*416 FILLER_0_0_70
*417 FILLER_0_0_80
*418 FILLER_0_0_93
*419 FILLER_0_10_104
*420 FILLER_0_10_110
*421 FILLER_0_10_118
*422 FILLER_0_10_130
*423 FILLER_0_10_149
*424 FILLER_0_10_155
*425 FILLER_0_10_17
*426 FILLER_0_10_25
*427 FILLER_0_10_37
*428 FILLER_0_10_45
*429 FILLER_0_10_50
*430 FILLER_0_10_6
*431 FILLER_0_10_60
*432 FILLER_0_10_71
*433 FILLER_0_10_83
*434 FILLER_0_10_92
*435 FILLER_0_11_104
*436 FILLER_0_11_108
*437 FILLER_0_11_113
*438 FILLER_0_11_125
*439 FILLER_0_11_13
*440 FILLER_0_11_133
*441 FILLER_0_11_145
*442 FILLER_0_11_25
*443 FILLER_0_11_3
*444 FILLER_0_11_33
*445 FILLER_0_11_43
*446 FILLER_0_11_55
*447 FILLER_0_11_64
*448 FILLER_0_11_76
*449 FILLER_0_11_96
*450 FILLER_0_12_101
*451 FILLER_0_12_119
*452 FILLER_0_12_135
*453 FILLER_0_12_139
*454 FILLER_0_12_141
*455 FILLER_0_12_149
*456 FILLER_0_12_155
*457 FILLER_0_12_21
*458 FILLER_0_12_3
*459 FILLER_0_12_34
*460 FILLER_0_12_46
*461 FILLER_0_12_61
*462 FILLER_0_12_69
*463 FILLER_0_12_78
*464 FILLER_0_12_92
*465 FILLER_0_13_110
*466 FILLER_0_13_122
*467 FILLER_0_13_135
*468 FILLER_0_13_155
*469 FILLER_0_13_159
*470 FILLER_0_13_18
*471 FILLER_0_13_36
*472 FILLER_0_13_48
*473 FILLER_0_13_65
*474 FILLER_0_13_98
*475 FILLER_0_14_124
*476 FILLER_0_14_132
*477 FILLER_0_14_141
*478 FILLER_0_14_145
*479 FILLER_0_14_155
*480 FILLER_0_14_61
*481 FILLER_0_14_85
*482 FILLER_0_14_93
*483 FILLER_0_14_98
*484 FILLER_0_15_111
*485 FILLER_0_15_121
*486 FILLER_0_15_131
*487 FILLER_0_15_148
*488 FILLER_0_15_156
*489 FILLER_0_15_17
*490 FILLER_0_15_46
*491 FILLER_0_15_50
*492 FILLER_0_15_54
*493 FILLER_0_15_57
*494 FILLER_0_15_69
*495 FILLER_0_15_82
*496 FILLER_0_16_108
*497 FILLER_0_16_120
*498 FILLER_0_16_139
*499 FILLER_0_16_141
*500 FILLER_0_16_21
*501 FILLER_0_16_27
*502 FILLER_0_16_29
*503 FILLER_0_16_43
*504 FILLER_0_16_65
*505 FILLER_0_16_76
*506 FILLER_0_16_9
*507 FILLER_0_17_111
*508 FILLER_0_17_122
*509 FILLER_0_17_134
*510 FILLER_0_17_146
*511 FILLER_0_17_15
*512 FILLER_0_17_158
*513 FILLER_0_17_23
*514 FILLER_0_17_3
*515 FILLER_0_17_47
*516 FILLER_0_17_55
*517 FILLER_0_18_112
*518 FILLER_0_18_135
*519 FILLER_0_18_139
*520 FILLER_0_18_148
*521 FILLER_0_18_157
*522 FILLER_0_18_22
*523 FILLER_0_18_29
*524 FILLER_0_18_33
*525 FILLER_0_18_43
*526 FILLER_0_18_55
*527 FILLER_0_18_64
*528 FILLER_0_18_76
*529 FILLER_0_18_9
*530 FILLER_0_19_104
*531 FILLER_0_19_109
*532 FILLER_0_19_113
*533 FILLER_0_19_128
*534 FILLER_0_19_140
*535 FILLER_0_19_149
*536 FILLER_0_19_153
*537 FILLER_0_19_31
*538 FILLER_0_19_39
*539 FILLER_0_19_49
*540 FILLER_0_19_55
*541 FILLER_0_19_57
*542 FILLER_0_19_68
*543 FILLER_0_19_74
*544 FILLER_0_19_86
*545 FILLER_0_19_96
*546 FILLER_0_1_113
*547 FILLER_0_1_12
*548 FILLER_0_1_139
*549 FILLER_0_1_19
*550 FILLER_0_1_34
*551 FILLER_0_1_55
*552 FILLER_0_1_57
*553 FILLER_0_1_61
*554 FILLER_0_1_78
*555 FILLER_0_20_106
*556 FILLER_0_20_114
*557 FILLER_0_20_127
*558 FILLER_0_20_138
*559 FILLER_0_20_17
*560 FILLER_0_20_27
*561 FILLER_0_20_3
*562 FILLER_0_20_32
*563 FILLER_0_20_44
*564 FILLER_0_20_85
*565 FILLER_0_20_9
*566 FILLER_0_20_97
*567 FILLER_0_21_111
*568 FILLER_0_21_113
*569 FILLER_0_21_122
*570 FILLER_0_21_143
*571 FILLER_0_21_155
*572 FILLER_0_21_159
*573 FILLER_0_21_18
*574 FILLER_0_21_33
*575 FILLER_0_21_45
*576 FILLER_0_21_53
*577 FILLER_0_21_6
*578 FILLER_0_21_62
*579 FILLER_0_21_71
*580 FILLER_0_21_81
*581 FILLER_0_21_99
*582 FILLER_0_22_101
*583 FILLER_0_22_116
*584 FILLER_0_22_128
*585 FILLER_0_22_141
*586 FILLER_0_22_153
*587 FILLER_0_22_18
*588 FILLER_0_22_26
*589 FILLER_0_22_38
*590 FILLER_0_22_44
*591 FILLER_0_22_54
*592 FILLER_0_22_6
*593 FILLER_0_22_66
*594 FILLER_0_22_78
*595 FILLER_0_23_102
*596 FILLER_0_23_109
*597 FILLER_0_23_113
*598 FILLER_0_23_125
*599 FILLER_0_23_146
*600 FILLER_0_23_15
*601 FILLER_0_23_154
*602 FILLER_0_23_23
*603 FILLER_0_23_3
*604 FILLER_0_23_33
*605 FILLER_0_23_57
*606 FILLER_0_23_65
*607 FILLER_0_23_78
*608 FILLER_0_23_90
*609 FILLER_0_24_103
*610 FILLER_0_24_121
*611 FILLER_0_24_133
*612 FILLER_0_24_139
*613 FILLER_0_24_141
*614 FILLER_0_24_149
*615 FILLER_0_24_18
*616 FILLER_0_24_26
*617 FILLER_0_24_49
*618 FILLER_0_24_53
*619 FILLER_0_24_6
*620 FILLER_0_24_70
*621 FILLER_0_24_74
*622 FILLER_0_24_85
*623 FILLER_0_24_93
*624 FILLER_0_25_105
*625 FILLER_0_25_141
*626 FILLER_0_25_15
*627 FILLER_0_25_156
*628 FILLER_0_25_27
*629 FILLER_0_25_39
*630 FILLER_0_25_55
*631 FILLER_0_25_85
*632 FILLER_0_26_113
*633 FILLER_0_26_127
*634 FILLER_0_26_139
*635 FILLER_0_26_153
*636 FILLER_0_26_23
*637 FILLER_0_26_27
*638 FILLER_0_26_29
*639 FILLER_0_26_37
*640 FILLER_0_26_44
*641 FILLER_0_26_55
*642 FILLER_0_26_57
*643 FILLER_0_26_7
*644 FILLER_0_26_83
*645 FILLER_0_26_85
*646 FILLER_0_26_90
*647 FILLER_0_2_102
*648 FILLER_0_2_112
*649 FILLER_0_2_124
*650 FILLER_0_2_134
*651 FILLER_0_2_141
*652 FILLER_0_2_153
*653 FILLER_0_2_18
*654 FILLER_0_2_22
*655 FILLER_0_2_26
*656 FILLER_0_2_29
*657 FILLER_0_2_41
*658 FILLER_0_2_6
*659 FILLER_0_2_96
*660 FILLER_0_3_113
*661 FILLER_0_3_117
*662 FILLER_0_3_12
*663 FILLER_0_3_125
*664 FILLER_0_3_133
*665 FILLER_0_3_143
*666 FILLER_0_3_151
*667 FILLER_0_3_44
*668 FILLER_0_3_52
*669 FILLER_0_3_6
*670 FILLER_0_3_89
*671 FILLER_0_4_125
*672 FILLER_0_4_23
*673 FILLER_0_4_27
*674 FILLER_0_4_29
*675 FILLER_0_4_3
*676 FILLER_0_4_44
*677 FILLER_0_4_53
*678 FILLER_0_4_59
*679 FILLER_0_4_68
*680 FILLER_0_4_74
*681 FILLER_0_4_78
*682 FILLER_0_4_85
*683 FILLER_0_4_97
*684 FILLER_0_5_102
*685 FILLER_0_5_110
*686 FILLER_0_5_135
*687 FILLER_0_5_141
*688 FILLER_0_5_150
*689 FILLER_0_5_35
*690 FILLER_0_5_54
*691 FILLER_0_5_62
*692 FILLER_0_5_79
*693 FILLER_0_5_98
*694 FILLER_0_6_121
*695 FILLER_0_6_133
*696 FILLER_0_6_139
*697 FILLER_0_6_141
*698 FILLER_0_6_151
*699 FILLER_0_6_21
*700 FILLER_0_6_26
*701 FILLER_0_6_3
*702 FILLER_0_6_38
*703 FILLER_0_6_83
*704 FILLER_0_7_106
*705 FILLER_0_7_111
*706 FILLER_0_7_118
*707 FILLER_0_7_139
*708 FILLER_0_7_159
*709 FILLER_0_7_26
*710 FILLER_0_7_3
*711 FILLER_0_7_38
*712 FILLER_0_7_46
*713 FILLER_0_7_57
*714 FILLER_0_7_62
*715 FILLER_0_7_70
*716 FILLER_0_7_74
*717 FILLER_0_7_87
*718 FILLER_0_7_92
*719 FILLER_0_8_108
*720 FILLER_0_8_120
*721 FILLER_0_8_125
*722 FILLER_0_8_139
*723 FILLER_0_8_141
*724 FILLER_0_8_153
*725 FILLER_0_8_159
*726 FILLER_0_8_23
*727 FILLER_0_8_27
*728 FILLER_0_8_29
*729 FILLER_0_8_3
*730 FILLER_0_8_41
*731 FILLER_0_8_59
*732 FILLER_0_8_67
*733 FILLER_0_8_79
*734 FILLER_0_8_83
*735 FILLER_0_8_85
*736 FILLER_0_8_92
*737 FILLER_0_9_119
*738 FILLER_0_9_131
*739 FILLER_0_9_139
*740 FILLER_0_9_157
*741 FILLER_0_9_21
*742 FILLER_0_9_3
*743 FILLER_0_9_55
*744 FILLER_0_9_57
*745 FILLER_0_9_63
*746 FILLER_0_9_83
*747 FILLER_0_9_99
*748 PHY_EDGE_ROW_0_Left_27
*749 PHY_EDGE_ROW_0_Right_0
*750 PHY_EDGE_ROW_10_Left_37
*751 PHY_EDGE_ROW_10_Right_10
*752 PHY_EDGE_ROW_11_Left_38
*753 PHY_EDGE_ROW_11_Right_11
*754 PHY_EDGE_ROW_12_Left_39
*755 PHY_EDGE_ROW_12_Right_12
*756 PHY_EDGE_ROW_13_Left_40
*757 PHY_EDGE_ROW_13_Right_13
*758 PHY_EDGE_ROW_14_Left_41
*759 PHY_EDGE_ROW_14_Right_14
*760 PHY_EDGE_ROW_15_Left_42
*761 PHY_EDGE_ROW_15_Right_15
*762 PHY_EDGE_ROW_16_Left_43
*763 PHY_EDGE_ROW_16_Right_16
*764 PHY_EDGE_ROW_17_Left_44
*765 PHY_EDGE_ROW_17_Right_17
*766 PHY_EDGE_ROW_18_Left_45
*767 PHY_EDGE_ROW_18_Right_18
*768 PHY_EDGE_ROW_19_Left_46
*769 PHY_EDGE_ROW_19_Right_19
*770 PHY_EDGE_ROW_1_Left_28
*771 PHY_EDGE_ROW_1_Right_1
*772 PHY_EDGE_ROW_20_Left_47
*773 PHY_EDGE_ROW_20_Right_20
*774 PHY_EDGE_ROW_21_Left_48
*775 PHY_EDGE_ROW_21_Right_21
*776 PHY_EDGE_ROW_22_Left_49
*777 PHY_EDGE_ROW_22_Right_22
*778 PHY_EDGE_ROW_23_Left_50
*779 PHY_EDGE_ROW_23_Right_23
*780 PHY_EDGE_ROW_24_Left_51
*781 PHY_EDGE_ROW_24_Right_24
*782 PHY_EDGE_ROW_25_Left_52
*783 PHY_EDGE_ROW_25_Right_25
*784 PHY_EDGE_ROW_26_Left_53
*785 PHY_EDGE_ROW_26_Right_26
*786 PHY_EDGE_ROW_2_Left_29
*787 PHY_EDGE_ROW_2_Right_2
*788 PHY_EDGE_ROW_3_Left_30
*789 PHY_EDGE_ROW_3_Right_3
*790 PHY_EDGE_ROW_4_Left_31
*791 PHY_EDGE_ROW_4_Right_4
*792 PHY_EDGE_ROW_5_Left_32
*793 PHY_EDGE_ROW_5_Right_5
*794 PHY_EDGE_ROW_6_Left_33
*795 PHY_EDGE_ROW_6_Right_6
*796 PHY_EDGE_ROW_7_Left_34
*797 PHY_EDGE_ROW_7_Right_7
*798 PHY_EDGE_ROW_8_Left_35
*799 PHY_EDGE_ROW_8_Right_8
*800 PHY_EDGE_ROW_9_Left_36
*801 PHY_EDGE_ROW_9_Right_9
*802 TAP_TAPCELL_ROW_0_54
*803 TAP_TAPCELL_ROW_0_55
*804 TAP_TAPCELL_ROW_0_56
*805 TAP_TAPCELL_ROW_0_57
*806 TAP_TAPCELL_ROW_0_58
*807 TAP_TAPCELL_ROW_10_81
*808 TAP_TAPCELL_ROW_10_82
*809 TAP_TAPCELL_ROW_10_83
*810 TAP_TAPCELL_ROW_11_84
*811 TAP_TAPCELL_ROW_11_85
*812 TAP_TAPCELL_ROW_12_86
*813 TAP_TAPCELL_ROW_12_87
*814 TAP_TAPCELL_ROW_12_88
*815 TAP_TAPCELL_ROW_13_89
*816 TAP_TAPCELL_ROW_13_90
*817 TAP_TAPCELL_ROW_14_91
*818 TAP_TAPCELL_ROW_14_92
*819 TAP_TAPCELL_ROW_14_93
*820 TAP_TAPCELL_ROW_15_94
*821 TAP_TAPCELL_ROW_15_95
*822 TAP_TAPCELL_ROW_16_96
*823 TAP_TAPCELL_ROW_16_97
*824 TAP_TAPCELL_ROW_16_98
*825 TAP_TAPCELL_ROW_17_100
*826 TAP_TAPCELL_ROW_17_99
*827 TAP_TAPCELL_ROW_18_101
*828 TAP_TAPCELL_ROW_18_102
*829 TAP_TAPCELL_ROW_18_103
*830 TAP_TAPCELL_ROW_19_104
*831 TAP_TAPCELL_ROW_19_105
*832 TAP_TAPCELL_ROW_1_59
*833 TAP_TAPCELL_ROW_1_60
*834 TAP_TAPCELL_ROW_20_106
*835 TAP_TAPCELL_ROW_20_107
*836 TAP_TAPCELL_ROW_20_108
*837 TAP_TAPCELL_ROW_21_109
*838 TAP_TAPCELL_ROW_21_110
*839 TAP_TAPCELL_ROW_22_111
*840 TAP_TAPCELL_ROW_22_112
*841 TAP_TAPCELL_ROW_22_113
*842 TAP_TAPCELL_ROW_23_114
*843 TAP_TAPCELL_ROW_23_115
*844 TAP_TAPCELL_ROW_24_116
*845 TAP_TAPCELL_ROW_24_117
*846 TAP_TAPCELL_ROW_24_118
*847 TAP_TAPCELL_ROW_25_119
*848 TAP_TAPCELL_ROW_25_120
*849 TAP_TAPCELL_ROW_26_121
*850 TAP_TAPCELL_ROW_26_122
*851 TAP_TAPCELL_ROW_26_123
*852 TAP_TAPCELL_ROW_26_124
*853 TAP_TAPCELL_ROW_26_125
*854 TAP_TAPCELL_ROW_2_61
*855 TAP_TAPCELL_ROW_2_62
*856 TAP_TAPCELL_ROW_2_63
*857 TAP_TAPCELL_ROW_3_64
*858 TAP_TAPCELL_ROW_3_65
*859 TAP_TAPCELL_ROW_4_66
*860 TAP_TAPCELL_ROW_4_67
*861 TAP_TAPCELL_ROW_4_68
*862 TAP_TAPCELL_ROW_5_69
*863 TAP_TAPCELL_ROW_5_70
*864 TAP_TAPCELL_ROW_6_71
*865 TAP_TAPCELL_ROW_6_72
*866 TAP_TAPCELL_ROW_6_73
*867 TAP_TAPCELL_ROW_7_74
*868 TAP_TAPCELL_ROW_7_75
*869 TAP_TAPCELL_ROW_8_76
*870 TAP_TAPCELL_ROW_8_77
*871 TAP_TAPCELL_ROW_8_78
*872 TAP_TAPCELL_ROW_9_79
*873 TAP_TAPCELL_ROW_9_80
*874 _239_
*875 _240_
*876 _241_
*877 _242_
*878 _243_
*879 _244_
*880 _245_
*881 _246_
*882 _247_
*883 _248_
*884 _249_
*885 _250_
*886 _251_
*887 _252_
*888 _253_
*889 _254_
*890 _255_
*891 _256_
*892 _257_
*893 _258_
*894 _259_
*895 _260_
*896 _261_
*897 _262_
*898 _263_
*899 _264_
*900 _265_
*901 _266_
*902 _267_
*903 _268_
*904 _269_
*905 _270_
*906 _271_
*907 _272_
*908 _273_
*909 _274_
*910 _275_
*911 _276_
*912 _277_
*913 _278_
*914 _279_
*915 _280_
*916 _281_
*917 _282_
*918 _283_
*919 _284_
*920 _285_
*921 _286_
*922 _287_
*923 _288_
*924 _289_
*925 _290_
*926 _291_
*927 _292_
*928 _293_
*929 _294_
*930 _295_
*931 _296_
*932 _297_
*933 _298_
*934 _299_
*935 _300_
*936 _301_
*937 _302_
*938 _303_
*939 _304_
*940 _305_
*941 _306_
*942 _307_
*943 _308_
*944 _309_
*945 _310_
*946 _311_
*947 _312_
*948 _313_
*949 _314_
*950 _315_
*951 _316_
*952 _317_
*953 _318_
*954 _319_
*955 _320_
*956 _321_
*957 _322_
*958 _323_
*959 _324_
*960 _325_
*961 _326_
*962 _327_
*963 _328_
*964 _329_
*965 _330_
*966 _331_
*967 _332_
*968 _333_
*969 _334_
*970 _335_
*971 _336_
*972 _337_
*973 _338_
*974 _339_
*975 _340_
*976 _341_
*977 _342_
*978 _343_
*979 _344_
*980 _345_
*981 _346_
*982 _347_
*983 _348_
*984 _349_
*985 _350_
*986 _351_
*987 _352_
*988 _353_
*989 _354_
*990 _355_
*991 _356_
*992 _357_
*993 _358_
*994 _359_
*995 _360_
*996 _361_
*997 _362_
*998 _363_
*999 _364_
*1000 _365_
*1001 _366_
*1002 _367_
*1003 _368_
*1004 _369_
*1005 _370_
*1006 _371_
*1007 _372_
*1008 _373_
*1009 _374_
*1010 _375_
*1011 _376_
*1012 _377_
*1013 _378_
*1014 _379_
*1015 _380_
*1016 _381_
*1017 _382_
*1018 _383_
*1019 _384_
*1020 _385_
*1021 _386_
*1022 _387_
*1023 _388_
*1024 _389_
*1025 _390_
*1026 _391_
*1027 _392_
*1028 _393_
*1029 _394_
*1030 _395_
*1031 _396_
*1032 _397_
*1033 _398_
*1034 _399_
*1035 _400_
*1036 _401_
*1037 _402_
*1038 _403_
*1039 _404_
*1040 _405_
*1041 _406_
*1042 _407_
*1043 _408_
*1044 _409_
*1045 _410_
*1046 _411_
*1047 _412_
*1048 _413_
*1049 _414_
*1050 _415_
*1051 _416_
*1052 _417_
*1053 _418_
*1054 _419_
*1055 _420_
*1056 _421_
*1057 _422_
*1058 _423_
*1059 _424_
*1060 _425_
*1061 _426_
*1062 _427_
*1063 _428_
*1064 _429_
*1065 _430_
*1066 _431_
*1067 _432_
*1068 _433_
*1069 _434_
*1070 _435_
*1071 _436_
*1072 _437_
*1073 _438_
*1074 _439_
*1075 _440_
*1076 _441_
*1077 _442_
*1078 _443_
*1079 _444_
*1080 _445_
*1081 _446_
*1082 _447_
*1083 _448_
*1084 _449_
*1085 _450_
*1086 _451_
*1087 _452_
*1088 _453_
*1089 _454_
*1090 _455_
*1091 _456_
*1092 _457_
*1093 _458_
*1094 _459_
*1095 _460_
*1096 _461_
*1097 _462_
*1098 _463_
*1099 _464_
*1100 _465_
*1101 _466_
*1102 _467_
*1103 _468_
*1104 _469_
*1105 _470_
*1106 _471_
*1107 _472_
*1108 _473_
*1109 _474_
*1110 _475_
*1111 _476_
*1112 _477_
*1113 _478_
*1114 _479_
*1115 _480_
*1116 _481_
*1117 _482_
*1118 _483_
*1119 _484_
*1120 _485_
*1121 _486_
*1122 _487_
*1123 _488_
*1124 _489_
*1125 _490_
*1126 _491_
*1127 _492_
*1128 _493_
*1129 _494_
*1130 _495_
*1131 _496_
*1132 _497_
*1133 _498_
*1134 _499_
*1135 _500_
*1136 _501_
*1137 _502_
*1138 _503_
*1139 _504_
*1140 _505_
*1141 _506_
*1142 _507_
*1143 _508_
*1144 _509_
*1145 _510_
*1146 _511_
*1147 _512_
*1148 _513_
*1149 _514_
*1150 _515_
*1151 _516_
*1152 _517_
*1153 _518_
*1154 clkbuf_0_clk
*1155 clkbuf_2_0__f_clk
*1156 clkbuf_2_1__f_clk
*1157 clkbuf_2_2__f_clk
*1158 clkbuf_2_3__f_clk
*1159 hold1
*1160 hold10
*1161 hold11
*1162 hold12
*1163 hold13
*1164 hold14
*1165 hold15
*1166 hold16
*1167 hold17
*1168 hold18
*1169 hold19
*1170 hold2
*1171 hold20
*1172 hold21
*1173 hold22
*1174 hold3
*1175 hold4
*1176 hold5
*1177 hold6
*1178 hold7
*1179 hold8
*1180 hold9
*1181 input1
*1182 input10
*1183 input11
*1184 input12
*1185 input13
*1186 input14
*1187 input15
*1188 input16
*1189 input17
*1190 input18
*1191 input19
*1192 input2
*1193 input20
*1194 input21
*1195 input22
*1196 input23
*1197 input24
*1198 input25
*1199 input26
*1200 input27
*1201 input28
*1202 input29
*1203 input3
*1204 input30
*1205 input31
*1206 input32
*1207 input33
*1208 input4
*1209 input5
*1210 input6
*1211 input7
*1212 input8
*1213 input9
*1214 output34
*1215 output35
*1216 output36
*1217 output37
*1218 output38
*1219 output39
*1220 output40
*1221 output41
*1222 output42
*1223 output43
*1224 output44
*1225 output45
*1226 output46
*1227 output47
*1228 output48
*1229 output49
*1230 output50
*1231 output51
*1232 output52
*1233 output53
*1234 output54
*1235 output55
*1236 output56
*1237 output57
*1238 output58
*1239 output59
*1240 output60
*1241 output61
*1242 output62
*1243 output63
*1244 output64
*1245 output65
*1246 output66

*PORTS
clk I
done O
mcand[0] I
mcand[10] I
mcand[11] I
mcand[12] I
mcand[13] I
mcand[14] I
mcand[15] I
mcand[1] I
mcand[2] I
mcand[3] I
mcand[4] I
mcand[5] I
mcand[6] I
mcand[7] I
mcand[8] I
mcand[9] I
mplier[0] I
mplier[10] I
mplier[11] I
mplier[12] I
mplier[13] I
mplier[14] I
mplier[15] I
mplier[1] I
mplier[2] I
mplier[3] I
mplier[4] I
mplier[5] I
mplier[6] I
mplier[7] I
mplier[8] I
mplier[9] I
product[0] O
product[10] O
product[11] O
product[12] O
product[13] O
product[14] O
product[15] O
product[16] O
product[17] O
product[18] O
product[19] O
product[1] O
product[20] O
product[21] O
product[22] O
product[23] O
product[24] O
product[25] O
product[26] O
product[27] O
product[28] O
product[29] O
product[2] O
product[30] O
product[31] O
product[3] O
product[4] O
product[5] O
product[6] O
product[7] O
product[8] O
product[9] O
st I

*D_NET *3 0.00895092
*CONN
*P clk I
*I *1154:A I *D sky130_fd_sc_hd__clkbuf_16
*CAP
1 clk 0.00312321
2 *1154:A 0.00312321
3 *1154:A product[9] 0
4 *1154:A *905:A1 3.30021e-05
5 *1154:A *905:A2 0.000103064
6 *1154:A *905:B1 1.52352e-05
7 *1154:A *905:B2 1.12643e-05
8 *1154:A *905:C1 0.000191554
9 *1154:A *950:A 0.000197907
10 *1154:A *953:B 4.67041e-05
11 *1154:A *964:A 0.000158552
12 *1154:A *965:A 7.01303e-05
13 *1154:A *966:B 3.79351e-05
14 *1154:A *1051:A 4.99619e-05
15 *1154:A *1052:A 0.000161984
16 *1154:A *1122:D 5.18362e-05
17 *1154:A *1196:A 0
18 *1154:A *1224:A 0
19 *1154:A *131:84 0.00060937
20 *1154:A *176:24 0
21 *1154:A *182:10 0
22 *1154:A *313:12 7.23533e-05
23 *1154:A *313:67 0.000385461
24 *1154:A *313:80 3.98995e-05
25 *1154:A *313:95 2.02624e-05
26 *1154:A *360:34 0.000437221
27 *1154:A *377:36 1.08129e-05
*RES
1 clk *1154:A 44.0521 
*END

*D_NET *4 0.000647009
*CONN
*P done O
*I *1214:X O *D sky130_fd_sc_hd__clkbuf_4
*CAP
1 done 0.000314677
2 *1214:X 0.000314677
3 done *1181:A 0
4 done *1189:A 1.76558e-05
5 done *388:24 0
*RES
1 *1214:X done 7.9789 
*END

*D_NET *5 0.000555657
*CONN
*P mcand[0] I
*I *1181:A I *D sky130_fd_sc_hd__buf_1
*CAP
1 mcand[0] 0.000277828
2 *1181:A 0.000277828
3 *1181:A *1207:A 0
4 *1181:A *388:24 0
5 done *1181:A 0
*RES
1 mcand[0] *1181:A 7.16543 
*END

*D_NET *6 0.00178714
*CONN
*P mcand[10] I
*I *1192:A I *D sky130_fd_sc_hd__buf_1
*CAP
1 mcand[10] 0.000754929
2 *1192:A 0.000754929
3 *1192:A product[21] 0.000159703
4 *1192:A product[22] 3.112e-05
5 *1192:A product[3] 0
6 *1192:A *1208:A 0
7 *1192:A *1229:A 8.64599e-05
*RES
1 mcand[10] *1192:A 15.6652 
*END

*D_NET *7 0.000573412
*CONN
*P mcand[11] I
*I *1203:A I *D sky130_fd_sc_hd__dlymetal6s2s_1
*CAP
1 mcand[11] 0.00023043
2 *1203:A 0.00023043
3 *1203:A product[25] 5.54874e-05
4 *1203:A *1199:A 0
5 *1203:A *1212:A 5.70647e-05
*RES
1 mcand[11] *1203:A 5.8085 
*END

*D_NET *8 0.00398182
*CONN
*P mcand[12] I
*I *1208:A I *D sky130_fd_sc_hd__buf_1
*CAP
1 mcand[12] 0.00142728
2 *1208:A 0.00142728
3 *1208:A product[12] 0.00060927
4 *1208:A *1062:S 4.80058e-05
5 *1208:A *1063:A1 0
6 *1208:A *1218:A 4.88243e-05
7 *1208:A *1231:A 0.000421161
8 *1192:A *1208:A 0
*RES
1 mcand[12] *1208:A 19.88 
*END

*D_NET *9 0.00223168
*CONN
*P mcand[13] I
*I *1209:A I *D sky130_fd_sc_hd__buf_1
*CAP
1 mcand[13] 0.000611341
2 *1209:A 0.000611341
3 *1209:A product[25] 0.000459879
4 *1209:A *1059:A1 5.8069e-05
5 *1209:A *1198:A 0.000232753
6 *1209:A *1199:A 0.000122797
7 *1209:A *340:16 8.70433e-06
8 *1209:A *344:18 7.60965e-05
9 *1209:A *366:30 5.06989e-05
*RES
1 mcand[13] *1209:A 17.325 
*END

*D_NET *10 0.000532204
*CONN
*P mcand[14] I
*I *1210:A I *D sky130_fd_sc_hd__buf_1
*CAP
1 mcand[14] 0.000187775
2 *1210:A 0.000187775
3 *1210:A product[15] 0
4 *1210:A *1186:A 0.000156653
*RES
1 mcand[14] *1210:A 5.35677 
*END

*D_NET *11 0.000403917
*CONN
*P mcand[15] I
*I *1211:A I *D sky130_fd_sc_hd__buf_1
*CAP
1 mcand[15] 0.000201958
2 *1211:A 0.000201958
3 *1211:A product[24] 0
4 *1211:A *1189:A 0
*RES
1 mcand[15] *1211:A 6.04043 
*END

*D_NET *12 0.000911752
*CONN
*P mcand[1] I
*I *1212:A I *D sky130_fd_sc_hd__buf_1
*CAP
1 mcand[1] 0.000367978
2 *1212:A 0.000367978
3 *1212:A product[25] 6.81787e-05
4 *1212:A *1206:A 0
5 *1212:A *1232:A 5.05521e-05
6 *1212:A *344:18 0
7 *1203:A *1212:A 5.70647e-05
*RES
1 mcand[1] *1212:A 8.22523 
*END

*D_NET *13 0.00107946
*CONN
*P mcand[2] I
*I *1213:A I *D sky130_fd_sc_hd__buf_1
*CAP
1 mcand[2] 0.000381773
2 *1213:A 0.000381773
3 *1213:A *1059:A0 4.18603e-06
4 *1213:A *1059:A1 0.000160641
5 *1213:A *1071:A1 9.27495e-05
6 *1213:A *1202:A 0
7 *1213:A *372:20 5.83373e-05
8 *1213:A *373:22 0
9 *1213:A *409:22 0
*RES
1 mcand[2] *1213:A 11.385 
*END

*D_NET *14 0.000425942
*CONN
*P mcand[3] I
*I *1182:A I *D sky130_fd_sc_hd__buf_1
*CAP
1 mcand[3] 0.000194974
2 *1182:A 0.000194974
3 *1182:A product[14] 0
4 *1182:A *1197:A 3.59949e-05
*RES
1 mcand[3] *1182:A 4.84677 
*END

*D_NET *15 0.000930422
*CONN
*P mcand[4] I
*I *1183:A I *D sky130_fd_sc_hd__clkbuf_1
*CAP
1 mcand[4] 0.000465211
2 *1183:A 0.000465211
3 *1183:A product[19] 0
4 *1183:A *1167:A 0
*RES
1 mcand[4] *1183:A 11.685 
*END

*D_NET *16 0.000523408
*CONN
*P mcand[5] I
*I *1184:A I *D sky130_fd_sc_hd__clkbuf_1
*CAP
1 mcand[5] 0.000243208
2 *1184:A 0.000243208
3 *1184:A product[15] 0
4 *1184:A *1196:A 3.6993e-05
5 *1184:A *1219:A 0
*RES
1 mcand[5] *1184:A 5.61177 
*END

*D_NET *17 0.000569678
*CONN
*P mcand[6] I
*I *1185:A I *D sky130_fd_sc_hd__dlymetal6s2s_1
*CAP
1 mcand[6] 0.000261612
2 *1185:A 0.000261612
3 *1185:A product[20] 0
4 *1185:A product[30] 0
5 *1185:A *1195:A 4.64544e-05
6 *1185:A *1197:A 0
*RES
1 mcand[6] *1185:A 7.40543 
*END

*D_NET *18 0.00111309
*CONN
*P mcand[7] I
*I *1186:A I *D sky130_fd_sc_hd__buf_1
*CAP
1 mcand[7] 0.000365807
2 *1186:A 0.000365807
3 *1186:A product[17] 0
4 *1186:A *1100:A 8.75474e-05
5 *1186:A *1148:D 1.88656e-05
6 *1186:A *1221:A 7.00836e-05
7 *1186:A *357:39 1.949e-05
8 *1186:A *377:36 2.88357e-05
9 *1210:A *1186:A 0.000156653
*RES
1 mcand[7] *1186:A 8.41217 
*END

*D_NET *19 0.00190285
*CONN
*P mcand[8] I
*I *1187:A I *D sky130_fd_sc_hd__clkbuf_2
*CAP
1 mcand[8] 0.000671162
2 *1187:A 0.000671162
3 *1187:A product[5] 0.000156509
4 *1187:A *1205:A 0.000404013
*RES
1 mcand[8] *1187:A 12.7206 
*END

*D_NET *20 0.000552408
*CONN
*P mcand[9] I
*I *1188:A I *D sky130_fd_sc_hd__clkbuf_2
*CAP
1 mcand[9] 0.000276204
2 *1188:A 0.000276204
3 *1188:A product[10] 0
4 *1188:A product[27] 0
*RES
1 mcand[9] *1188:A 6.8637 
*END

*D_NET *21 0.000537663
*CONN
*P mplier[0] I
*I *1189:A I *D sky130_fd_sc_hd__buf_1
*CAP
1 mplier[0] 0.000260004
2 *1189:A 0.000260004
3 *1189:A *388:24 0
4 done *1189:A 1.76558e-05
5 *1211:A *1189:A 0
*RES
1 mplier[0] *1189:A 7.16543 
*END

*D_NET *22 0.00113729
*CONN
*P mplier[10] I
*I *1190:A I *D sky130_fd_sc_hd__clkbuf_1
*CAP
1 mplier[10] 0.000502744
2 *1190:A 0.000502744
3 *1190:A product[28] 0
4 *1190:A product[30] 0
5 *1190:A *1058:A 0
6 *1190:A *70:20 7.97083e-05
7 *1190:A *373:22 5.20968e-05
*RES
1 mplier[10] *1190:A 12.75 
*END

*D_NET *23 0.00138731
*CONN
*P mplier[11] I
*I *1191:A I *D sky130_fd_sc_hd__clkbuf_1
*CAP
1 mplier[11] 0.000532599
2 *1191:A 0.000532599
3 *1191:A *1063:A0 0.000164874
4 *1191:A *1063:A1 0.000157237
5 *1191:A *379:14 0
6 *1191:A *379:33 0
*RES
1 mplier[11] *1191:A 13.62 
*END

*D_NET *24 0.00169855
*CONN
*P mplier[12] I
*I *1193:A I *D sky130_fd_sc_hd__clkbuf_1
*CAP
1 mplier[12] 0.000537615
2 *1193:A 0.000537615
3 *1193:A product[10] 6.63607e-05
4 *1193:A *1104:B 4.77807e-05
5 *1193:A *1105:B 8.64421e-05
6 *1193:A *1106:B1 0.000197829
7 *1193:A *1107:A 4.25815e-05
8 *1193:A *1109:A2 7.11235e-06
9 *1193:A *1206:A 0
10 *1193:A *330:20 6.12947e-05
11 *1193:A *348:16 7.46093e-05
12 *1193:A *348:26 3.93101e-05
*RES
1 mplier[12] *1193:A 10.1516 
*END

*D_NET *25 0.000557346
*CONN
*P mplier[13] I
*I *1194:A I *D sky130_fd_sc_hd__clkbuf_1
*CAP
1 mplier[13] 0.000260177
2 *1194:A 0.000260177
3 *1194:A product[17] 0
4 *1194:A product[8] 3.6993e-05
5 *1194:A *1095:A0 0
*RES
1 mplier[13] *1194:A 7.40543 
*END

*D_NET *26 0.00170843
*CONN
*P mplier[14] I
*I *1195:A I *D sky130_fd_sc_hd__clkbuf_1
*CAP
1 mplier[14] 0.000707831
2 *1195:A 0.000707831
3 *1195:A product[20] 0.000211757
4 *1195:A *1197:A 0
5 *1195:A *1227:A 3.45588e-05
6 *1185:A *1195:A 4.64544e-05
*RES
1 mplier[14] *1195:A 17.235 
*END

*D_NET *27 0.000442269
*CONN
*P mplier[15] I
*I *1196:A I *D sky130_fd_sc_hd__clkbuf_1
*CAP
1 mplier[15] 0.000202638
2 *1196:A 0.000202638
3 *1154:A *1196:A 0
4 *1184:A *1196:A 3.6993e-05
*RES
1 mplier[15] *1196:A 6.38543 
*END

*D_NET *28 0.000447292
*CONN
*P mplier[1] I
*I *1197:A I *D sky130_fd_sc_hd__clkbuf_1
*CAP
1 mplier[1] 0.000205649
2 *1197:A 0.000205649
3 *1182:A *1197:A 3.59949e-05
4 *1185:A *1197:A 0
5 *1195:A *1197:A 0
*RES
1 mplier[1] *1197:A 6.38543 
*END

*D_NET *29 0.00224531
*CONN
*P mplier[2] I
*I *1198:A I *D sky130_fd_sc_hd__clkbuf_1
*CAP
1 mplier[2] 0.000883424
2 *1198:A 0.000883424
3 *1198:A product[25] 0
4 *1198:A *1199:A 7.08493e-05
5 *1198:A *340:16 4.99619e-05
6 *1198:A *344:18 0.0001249
7 *1209:A *1198:A 0.000232753
*RES
1 mplier[2] *1198:A 20.85 
*END

*D_NET *30 0.00112331
*CONN
*P mplier[3] I
*I *1199:A I *D sky130_fd_sc_hd__buf_1
*CAP
1 mplier[3] 0.000464831
2 *1199:A 0.000464831
3 *1199:A product[25] 0
4 *1198:A *1199:A 7.08493e-05
5 *1203:A *1199:A 0
6 *1209:A *1199:A 0.000122797
*RES
1 mplier[3] *1199:A 13.515 
*END

*D_NET *31 0.00189057
*CONN
*P mplier[4] I
*I *1200:A I *D sky130_fd_sc_hd__clkbuf_1
*CAP
1 mplier[4] 0.000644924
2 *1200:A 0.000644924
3 *1200:A product[16] 0
4 *1200:A *1063:S 0.000183521
5 *1200:A *1065:A1 0.000224956
6 *1200:A *1066:A0 8.69583e-05
7 *1200:A *1163:A 7.27003e-05
8 *1200:A *70:143 3.25831e-05
9 *1200:A *328:16 0
*RES
1 mplier[4] *1200:A 17.31 
*END

*D_NET *32 0.00102153
*CONN
*P mplier[5] I
*I *1201:A I *D sky130_fd_sc_hd__clkbuf_1
*CAP
1 mplier[5] 0.000472022
2 *1201:A 0.000472022
3 *1201:A *1243:A 4.99619e-05
4 *1201:A *328:16 2.75229e-05
*RES
1 mplier[5] *1201:A 12.135 
*END

*D_NET *33 0.000861611
*CONN
*P mplier[6] I
*I *1202:A I *D sky130_fd_sc_hd__clkbuf_1
*CAP
1 mplier[6] 0.000430806
2 *1202:A 0.000430806
3 *1213:A *1202:A 0
*RES
1 mplier[6] *1202:A 11.145 
*END