*SPEF "ieee 1481-1999"
*DESIGN "mult_sec_32"
*DATE "11:11:11 Fri 11 11, 1111"
*VENDOR "OpenRCX"
*PROGRAM "Parallel Extraction"
*VERSION "1.0"
*DESIGN_FLOW "NAME_SCOPE LOCAL" "PIN_CAP NONE"
*DIVIDER /
*DELIMITER :
*BUS_DELIMITER []
*T_UNIT 1 NS
*C_UNIT 1 PF
*R_UNIT 1 OHM
*L_UNIT 1 HENRY

*NAME_MAP
*3 clk
*4 done
*5 mcand[0]
*6 mcand[10]
*7 mcand[11]
*8 mcand[12]
*9 mcand[13]
*10 mcand[14]
*11 mcand[15]
*12 mcand[16]
*13 mcand[17]
*14 mcand[18]
*15 mcand[19]
*16 mcand[1]
*17 mcand[20]
*18 mcand[21]
*19 mcand[22]
*20 mcand[23]
*21 mcand[24]
*22 mcand[25]
*23 mcand[26]
*24 mcand[27]
*25 mcand[28]
*26 mcand[29]
*27 mcand[2]
*28 mcand[30]
*29 mcand[31]
*30 mcand[3]
*31 mcand[4]
*32 mcand[5]
*33 mcand[6]
*34 mcand[7]
*35 mcand[8]
*36 mcand[9]
*37 mplier[0]
*38 mplier[10]
*39 mplier[11]
*40 mplier[12]
*41 mplier[13]
*42 mplier[14]
*43 mplier[15]
*44 mplier[16]
*45 mplier[17]
*46 mplier[18]
*47 mplier[19]
*48 mplier[1]
*49 mplier[20]
*50 mplier[21]
*51 mplier[22]
*52 mplier[23]
*53 mplier[24]
*54 mplier[25]
*55 mplier[26]
*56 mplier[27]
*57 mplier[28]
*58 mplier[29]
*59 mplier[2]
*60 mplier[30]
*61 mplier[31]
*62 mplier[3]
*63 mplier[4]
*64 mplier[5]
*65 mplier[6]
*66 mplier[7]
*67 mplier[8]
*68 mplier[9]
*69 product[0]
*70 product[10]
*71 product[11]
*72 product[12]
*73 product[13]
*74 product[14]
*75 product[15]
*76 product[16]
*77 product[17]
*78 product[18]
*79 product[19]
*80 product[1]
*81 product[20]
*82 product[21]
*83 product[22]
*84 product[23]
*85 product[24]
*86 product[25]
*87 product[26]
*88 product[27]
*89 product[28]
*90 product[29]
*91 product[2]
*92 product[30]
*93 product[31]
*94 product[32]
*95 product[33]
*96 product[34]
*97 product[35]
*98 product[36]
*99 product[37]
*100 product[38]
*101 product[39]
*102 product[3]
*103 product[40]
*104 product[41]
*105 product[42]
*106 product[43]
*107 product[44]
*108 product[45]
*109 product[46]
*110 product[47]
*111 product[48]
*112 product[49]
*113 product[4]
*114 product[50]
*115 product[51]
*116 product[52]
*117 product[53]
*118 product[54]
*119 product[55]
*120 product[56]
*121 product[57]
*122 product[58]
*123 product[59]
*124 product[5]
*125 product[60]
*126 product[61]
*127 product[62]
*128 product[63]
*129 product[6]
*130 product[7]
*131 product[8]
*132 product[9]
*133 st
*134 _000_
*135 _001_
*136 _002_
*137 _003_
*138 _004_
*139 _005_
*140 _006_
*141 _007_
*142 _008_
*143 _009_
*144 _010_
*145 _011_
*146 _012_
*147 _013_
*148 _014_
*149 _015_
*150 _016_
*151 _017_
*152 _018_
*153 _019_
*154 _020_
*155 _021_
*156 _022_
*157 _023_
*158 _024_
*159 _025_
*160 _026_
*161 _027_
*162 _028_
*163 _029_
*164 _030_
*165 _031_
*166 _032_
*167 _033_
*168 _034_
*169 _035_
*170 _036_
*171 _037_
*172 _038_
*173 _039_
*174 _040_
*175 _041_
*176 _042_
*177 _043_
*178 _044_
*179 _045_
*180 _046_
*181 _047_
*182 _048_
*183 _049_
*184 _050_
*185 _051_
*186 _052_
*187 _053_
*188 _054_
*189 _055_
*190 _056_
*191 _057_
*192 _058_
*193 _059_
*194 _060_
*195 _061_
*196 _062_
*197 _063_
*198 _064_
*199 _065_
*200 _066_
*201 _067_
*202 _068_
*203 _069_
*204 _070_
*205 _071_
*206 _072_
*207 _073_
*208 _074_
*209 _075_
*210 _076_
*211 _077_
*212 _078_
*213 _079_
*214 _080_
*215 _081_
*216 _082_
*217 _083_
*218 _084_
*219 _085_
*220 _086_
*221 _087_
*222 _088_
*223 _089_
*224 _090_
*225 _091_
*226 _092_
*227 _093_
*228 _094_
*229 _095_
*230 _096_
*231 _097_
*232 _098_
*233 _099_
*234 _100_
*235 _101_
*236 _102_
*237 _103_
*238 _104_
*239 _105_
*240 _106_
*241 _107_
*242 _108_
*243 _109_
*244 _110_
*245 _111_
*246 _112_
*247 _113_
*248 _114_
*249 _115_
*250 _116_
*251 _117_
*252 _118_
*253 _119_
*254 _120_
*255 _121_
*256 _122_
*257 _123_
*258 _124_
*259 _125_
*260 _126_
*261 _127_
*262 _128_
*263 _129_
*264 _130_
*265 _131_
*266 _132_
*267 _133_
*268 _134_
*269 _135_
*270 _136_
*271 _137_
*272 _138_
*273 _139_
*274 _140_
*275 _141_
*276 _142_
*277 _143_
*278 _144_
*279 _145_
*280 _146_
*281 _147_
*282 _148_
*283 _149_
*284 _150_
*285 _151_
*286 _152_
*287 _153_
*288 _154_
*289 _155_
*290 _156_
*291 _157_
*292 _158_
*293 _159_
*294 _160_
*295 _161_
*296 _162_
*297 _163_
*298 _164_
*299 _165_
*300 _166_
*301 _167_
*302 _168_
*303 _169_
*304 _170_
*305 _171_
*306 _172_
*307 _173_
*308 _174_
*309 _175_
*310 _176_
*311 _177_
*312 _178_
*313 _179_
*314 _180_
*315 _181_
*316 _182_
*317 _183_
*318 _184_
*319 _185_
*320 _186_
*321 _187_
*322 _188_
*323 _189_
*324 _190_
*325 _191_
*326 _192_
*327 _193_
*328 _194_
*329 _195_
*330 _196_
*331 _197_
*332 _198_
*333 _199_
*334 _200_
*335 _201_
*336 _202_
*337 _203_
*338 _204_
*339 _205_
*340 _206_
*341 _207_
*342 _208_
*343 _209_
*344 _210_
*345 _211_
*346 _212_
*347 _213_
*348 _214_
*349 _215_
*350 _216_
*351 _217_
*352 _218_
*353 _219_
*354 _220_
*355 _221_
*356 _222_
*357 _223_
*358 _224_
*359 _225_
*360 _226_
*361 _227_
*362 _228_
*363 _229_
*364 _230_
*365 _231_
*366 _232_
*367 _233_
*368 _234_
*369 _235_
*370 _236_
*371 _237_
*372 _238_
*373 _239_
*374 _240_
*375 _241_
*376 _242_
*377 _243_
*378 _244_
*379 _245_
*380 _246_
*381 _247_
*382 _248_
*383 _249_
*384 _250_
*385 _251_
*386 _252_
*387 _253_
*388 _254_
*389 _255_
*390 _256_
*391 _257_
*392 _258_
*393 _259_
*394 _260_
*395 _261_
*396 _262_
*397 _263_
*398 _264_
*399 _265_
*400 _266_
*401 _267_
*402 _268_
*403 _269_
*404 _270_
*405 _271_
*406 _272_
*407 _273_
*408 _274_
*409 _275_
*410 _276_
*411 _277_
*412 _278_
*413 _279_
*414 _280_
*415 _281_
*416 _282_
*417 _283_
*418 _284_
*419 _285_
*420 _286_
*421 _287_
*422 _288_
*423 _289_
*424 _290_
*425 _291_
*426 _292_
*427 _293_
*428 _294_
*429 _295_
*430 _296_
*431 _297_
*432 _298_
*433 _299_
*434 _300_
*435 _301_
*436 _302_
*437 _303_
*438 _304_
*439 _305_
*440 _306_
*441 _307_
*442 _308_
*443 _309_
*444 _310_
*445 _311_
*446 _312_
*447 _313_
*448 _314_
*449 _315_
*450 _316_
*451 _317_
*452 _318_
*453 _319_
*454 _320_
*455 _321_
*456 _322_
*457 _323_
*458 _324_
*459 _325_
*460 _326_
*461 _327_
*462 _328_
*463 _329_
*464 _330_
*465 _331_
*466 _332_
*467 _333_
*468 _334_
*469 _335_
*470 _336_
*471 _337_
*472 _338_
*473 _339_
*474 _340_
*475 _341_
*476 _342_
*477 _343_
*478 _344_
*479 _345_
*480 _346_
*481 _347_
*482 _348_
*483 _349_
*484 _350_
*485 _351_
*486 _352_
*487 _353_
*488 _354_
*489 _355_
*490 _356_
*491 _357_
*492 _358_
*493 _359_
*494 _360_
*495 _361_
*496 _362_
*497 _363_
*498 _364_
*499 _365_
*500 _366_
*501 _367_
*502 _368_
*503 _369_
*504 _370_
*505 _371_
*506 _372_
*507 _373_
*508 _374_
*509 _375_
*510 _376_
*511 _377_
*512 _378_
*513 _379_
*514 _380_
*515 _381_
*516 _382_
*517 _383_
*518 _384_
*519 _385_
*520 _386_
*521 _387_
*522 _388_
*523 _389_
*524 _390_
*525 _391_
*526 _392_
*527 _393_
*528 _394_
*529 _395_
*530 _396_
*531 _397_
*532 _398_
*533 _399_
*534 _400_
*535 _401_
*536 _402_
*537 _403_
*538 _404_
*539 _405_
*540 _406_
*541 _407_
*542 _408_
*543 _409_
*544 _410_
*545 _411_
*546 _412_
*547 _413_
*548 _414_
*549 _415_
*550 _416_
*551 _417_
*552 _418_
*553 _419_
*554 _420_
*555 _421_
*556 _422_
*557 _423_
*558 _424_
*559 _425_
*560 _426_
*561 _427_
*562 _428_
*563 acu_act\[64\]
*564 clknet_0_clk
*565 clknet_3_0__leaf_clk
*566 clknet_3_1__leaf_clk
*567 clknet_3_2__leaf_clk
*568 clknet_3_3__leaf_clk
*569 clknet_3_4__leaf_clk
*570 clknet_3_5__leaf_clk
*571 clknet_3_6__leaf_clk
*572 clknet_3_7__leaf_clk
*573 cnt_act\[0\]
*574 cnt_act\[1\]
*575 cnt_act\[2\]
*576 cnt_act\[3\]
*577 cnt_act\[4\]
*578 cnt_act\[5\]
*579 estado_act\[0\]
*580 estado_act\[1\]
*581 net1
*582 net10
*583 net100
*584 net101
*585 net102
*586 net103
*587 net104
*588 net105
*589 net106
*590 net107
*591 net108
*592 net109
*593 net11
*594 net110
*595 net111
*596 net112
*597 net113
*598 net114
*599 net115
*600 net116
*601 net117
*602 net118
*603 net119
*604 net12
*605 net120
*606 net121
*607 net122
*608 net123
*609 net124
*610 net125
*611 net126
*612 net127
*613 net128
*614 net129
*615 net13
*616 net130
*617 net131
*618 net132
*619 net133
*620 net134
*621 net135
*622 net136
*623 net137
*624 net138
*625 net139
*626 net14
*627 net140
*628 net141
*629 net142
*630 net143
*631 net144
*632 net145
*633 net146
*634 net147
*635 net148
*636 net149
*637 net15
*638 net150
*639 net151
*640 net152
*641 net153
*642 net154
*643 net155
*644 net156
*645 net157
*646 net158
*647 net159
*648 net16
*649 net160
*650 net161
*651 net162
*652 net163
*653 net164
*654 net165
*655 net166
*656 net167
*657 net168
*658 net169
*659 net17
*660 net170
*661 net171
*662 net172
*663 net173
*664 net174
*665 net175
*666 net176
*667 net177
*668 net178
*669 net179
*670 net18
*671 net180
*672 net181
*673 net19
*674 net2
*675 net20
*676 net21
*677 net22
*678 net23
*679 net24
*680 net25
*681 net26
*682 net27
*683 net28
*684 net29
*685 net3
*686 net30
*687 net31
*688 net32
*689 net33
*690 net34
*691 net35
*692 net36
*693 net37
*694 net38
*695 net39
*696 net4
*697 net40
*698 net41
*699 net42
*700 net43
*701 net44
*702 net45
*703 net46
*704 net47
*705 net48
*706 net49
*707 net5
*708 net50
*709 net51
*710 net52
*711 net53
*712 net54
*713 net55
*714 net56
*715 net57
*716 net58
*717 net59
*718 net6
*719 net60
*720 net61
*721 net62
*722 net63
*723 net64
*724 net65
*725 net66
*726 net67
*727 net68
*728 net69
*729 net7
*730 net70
*731 net71
*732 net72
*733 net73
*734 net74
*735 net75
*736 net76
*737 net77
*738 net78
*739 net79
*740 net8
*741 net80
*742 net81
*743 net82
*744 net83
*745 net84
*746 net85
*747 net86
*748 net87
*749 net88
*750 net89
*751 net9
*752 net90
*753 net91
*754 net92
*755 net93
*756 net94
*757 net95
*758 net96
*759 net97
*760 net98
*761 net99
*762 ANTENNA_1
*763 ANTENNA_2
*764 FILLER_0_0_111
*765 FILLER_0_0_122
*766 FILLER_0_0_128
*767 FILLER_0_0_135
*768 FILLER_0_0_167
*769 FILLER_0_0_190
*770 FILLER_0_0_27
*771 FILLER_0_0_35
*772 FILLER_0_0_42
*773 FILLER_0_0_48
*774 FILLER_0_0_93
*775 FILLER_0_10_106
*776 FILLER_0_10_127
*777 FILLER_0_10_137
*778 FILLER_0_10_141
*779 FILLER_0_10_154
*780 FILLER_0_10_162
*781 FILLER_0_10_186
*782 FILLER_0_10_213
*783 FILLER_0_10_24
*784 FILLER_0_10_29
*785 FILLER_0_10_3
*786 FILLER_0_10_67
*787 FILLER_0_10_7
*788 FILLER_0_10_78
*789 FILLER_0_10_85
*790 FILLER_0_10_97
*791 FILLER_0_11_111
*792 FILLER_0_11_113
*793 FILLER_0_11_167
*794 FILLER_0_11_169
*795 FILLER_0_11_180
*796 FILLER_0_11_186
*797 FILLER_0_11_214
*798 FILLER_0_11_27
*799 FILLER_0_11_33
*800 FILLER_0_11_57
*801 FILLER_0_11_79
*802 FILLER_0_11_99
*803 FILLER_0_12_101
*804 FILLER_0_12_109
*805 FILLER_0_12_121
*806 FILLER_0_12_133
*807 FILLER_0_12_139
*808 FILLER_0_12_145
*809 FILLER_0_12_158
*810 FILLER_0_12_170
*811 FILLER_0_12_182
*812 FILLER_0_12_194
*813 FILLER_0_12_197
*814 FILLER_0_12_202
*815 FILLER_0_12_24
*816 FILLER_0_12_3
*817 FILLER_0_12_37
*818 FILLER_0_12_49
*819 FILLER_0_12_61
*820 FILLER_0_12_7
*821 FILLER_0_12_76
*822 FILLER_0_12_85
*823 FILLER_0_12_91
*824 FILLER_0_13_110
*825 FILLER_0_13_113
*826 FILLER_0_13_139
*827 FILLER_0_13_151
*828 FILLER_0_13_155
*829 FILLER_0_13_163
*830 FILLER_0_13_167
*831 FILLER_0_13_169
*832 FILLER_0_13_190
*833 FILLER_0_13_197
*834 FILLER_0_13_217
*835 FILLER_0_13_33
*836 FILLER_0_13_45
*837 FILLER_0_13_53
*838 FILLER_0_13_57
*839 FILLER_0_13_93
*840 FILLER_0_14_101
*841 FILLER_0_14_109
*842 FILLER_0_14_123
*843 FILLER_0_14_141
*844 FILLER_0_14_145
*845 FILLER_0_14_172
*846 FILLER_0_14_177
*847 FILLER_0_14_197
*848 FILLER_0_14_216
*849 FILLER_0_14_22
*850 FILLER_0_14_43
*851 FILLER_0_14_62
*852 FILLER_0_14_68
*853 FILLER_0_14_75
*854 FILLER_0_14_83
*855 FILLER_0_14_85
*856 FILLER_0_14_9
*857 FILLER_0_15_104
*858 FILLER_0_15_113
*859 FILLER_0_15_123
*860 FILLER_0_15_147
*861 FILLER_0_15_153
*862 FILLER_0_15_158
*863 FILLER_0_15_166
*864 FILLER_0_15_18
*865 FILLER_0_15_182
*866 FILLER_0_15_194
*867 FILLER_0_15_216
*868 FILLER_0_15_22
*869 FILLER_0_15_39
*870 FILLER_0_15_55
*871 FILLER_0_15_57
*872 FILLER_0_15_6
*873 FILLER_0_15_72
*874 FILLER_0_15_84
*875 FILLER_0_15_95
*876 FILLER_0_15_99
*877 FILLER_0_16_109
*878 FILLER_0_16_121
*879 FILLER_0_16_133
*880 FILLER_0_16_139
*881 FILLER_0_16_185
*882 FILLER_0_16_193
*883 FILLER_0_16_21
*884 FILLER_0_16_213
*885 FILLER_0_16_27
*886 FILLER_0_16_29
*887 FILLER_0_16_41
*888 FILLER_0_16_45
*889 FILLER_0_16_49
*890 FILLER_0_16_54
*891 FILLER_0_16_66
*892 FILLER_0_16_78
*893 FILLER_0_16_85
*894 FILLER_0_16_9
*895 FILLER_0_16_97
*896 FILLER_0_17_109
*897 FILLER_0_17_127
*898 FILLER_0_17_142
*899 FILLER_0_17_159
*900 FILLER_0_17_167
*901 FILLER_0_17_175
*902 FILLER_0_17_18
*903 FILLER_0_17_194
*904 FILLER_0_17_215
*905 FILLER_0_17_47
*906 FILLER_0_17_54
*907 FILLER_0_17_6
*908 FILLER_0_17_61
*909 FILLER_0_17_74
*910 FILLER_0_17_92
*911 FILLER_0_18_102
*912 FILLER_0_18_123
*913 FILLER_0_18_133
*914 FILLER_0_18_170
*915 FILLER_0_18_178
*916 FILLER_0_18_194
*917 FILLER_0_18_197
*918 FILLER_0_18_201
*919 FILLER_0_18_29
*920 FILLER_0_18_3
*921 FILLER_0_18_43
*922 FILLER_0_18_67
*923 FILLER_0_18_80
*924 FILLER_0_18_85
*925 FILLER_0_18_93
*926 FILLER_0_19_113
*927 FILLER_0_19_15
*928 FILLER_0_19_157
*929 FILLER_0_19_165
*930 FILLER_0_19_169
*931 FILLER_0_19_187
*932 FILLER_0_19_193
*933 FILLER_0_19_202
*934 FILLER_0_19_25
*935 FILLER_0_19_37
*936 FILLER_0_19_45
*937 FILLER_0_19_49
*938 FILLER_0_19_55
*939 FILLER_0_19_63
*940 FILLER_0_19_7
*941 FILLER_0_19_89
*942 FILLER_0_1_119
*943 FILLER_0_1_17
*944 FILLER_0_1_178
*945 FILLER_0_1_190
*946 FILLER_0_1_217
*947 FILLER_0_1_23
*948 FILLER_0_1_27
*949 FILLER_0_1_3
*950 FILLER_0_1_39
*951 FILLER_0_1_51
*952 FILLER_0_1_55
*953 FILLER_0_1_57
*954 FILLER_0_1_64
*955 FILLER_0_1_92
*956 FILLER_0_20_107
*957 FILLER_0_20_119
*958 FILLER_0_20_123
*959 FILLER_0_20_135
*960 FILLER_0_20_139
*961 FILLER_0_20_141
*962 FILLER_0_20_15
*963 FILLER_0_20_153
*964 FILLER_0_20_162
*965 FILLER_0_20_180
*966 FILLER_0_20_194
*967 FILLER_0_20_212
*968 FILLER_0_20_3
*969 FILLER_0_20_38
*970 FILLER_0_20_45
*971 FILLER_0_20_73
*972 FILLER_0_20_81
*973 FILLER_0_20_85
*974 FILLER_0_20_97
*975 FILLER_0_21_100
*976 FILLER_0_21_113
*977 FILLER_0_21_125
*978 FILLER_0_21_137
*979 FILLER_0_21_14
*980 FILLER_0_21_158
*981 FILLER_0_21_169
*982 FILLER_0_21_175
*983 FILLER_0_21_188
*984 FILLER_0_21_197
*985 FILLER_0_21_52
*986 FILLER_0_21_57
*987 FILLER_0_21_6
*988 FILLER_0_21_70
*989 FILLER_0_21_82
*990 FILLER_0_21_94
*991 FILLER_0_22_103
*992 FILLER_0_22_112
*993 FILLER_0_22_141
*994 FILLER_0_22_145
*995 FILLER_0_22_154
*996 FILLER_0_22_158
*997 FILLER_0_22_165
*998 FILLER_0_22_18
*999 FILLER_0_22_184
*1000 FILLER_0_22_213
*1001 FILLER_0_22_26
*1002 FILLER_0_22_29
*1003 FILLER_0_22_34
*1004 FILLER_0_22_47
*1005 FILLER_0_22_55
*1006 FILLER_0_22_6
*1007 FILLER_0_22_72
*1008 FILLER_0_22_82
*1009 FILLER_0_22_85
*1010 FILLER_0_22_93
*1011 FILLER_0_23_108
*1012 FILLER_0_23_120
*1013 FILLER_0_23_15
*1014 FILLER_0_23_161
*1015 FILLER_0_23_167
*1016 FILLER_0_23_172
*1017 FILLER_0_23_184
*1018 FILLER_0_23_196
*1019 FILLER_0_23_208
*1020 FILLER_0_23_216
*1021 FILLER_0_23_27
*1022 FILLER_0_23_3
*1023 FILLER_0_23_31
*1024 FILLER_0_23_35
*1025 FILLER_0_23_39
*1026 FILLER_0_23_49
*1027 FILLER_0_23_55
*1028 FILLER_0_23_57
*1029 FILLER_0_23_65
*1030 FILLER_0_23_97
*1031 FILLER_0_24_114
*1032 FILLER_0_24_12
*1033 FILLER_0_24_126
*1034 FILLER_0_24_131
*1035 FILLER_0_24_139
*1036 FILLER_0_24_141
*1037 FILLER_0_24_145
*1038 FILLER_0_24_151
*1039 FILLER_0_24_163
*1040 FILLER_0_24_181
*1041 FILLER_0_24_185
*1042 FILLER_0_24_193
*1043 FILLER_0_24_197
*1044 FILLER_0_24_202
*1045 FILLER_0_24_214
*1046 FILLER_0_24_24
*1047 FILLER_0_24_62
*1048 FILLER_0_24_68
*1049 FILLER_0_24_80
*1050 FILLER_0_24_94
*1051 FILLER_0_25_110
*1052 FILLER_0_25_119
*1053 FILLER_0_25_127
*1054 FILLER_0_25_136
*1055 FILLER_0_25_140
*1056 FILLER_0_25_157
*1057 FILLER_0_25_166
*1058 FILLER_0_25_175
*1059 FILLER_0_25_188
*1060 FILLER_0_25_199
*1061 FILLER_0_25_25
*1062 FILLER_0_25_3
*1063 FILLER_0_25_38
*1064 FILLER_0_25_42
*1065 FILLER_0_25_51
*1066 FILLER_0_25_55
*1067 FILLER_0_25_57
*1068 FILLER_0_25_77
*1069 FILLER_0_25_89
*1070 FILLER_0_26_105
*1071 FILLER_0_26_121
*1072 FILLER_0_26_126
*1073 FILLER_0_26_136
*1074 FILLER_0_26_178
*1075 FILLER_0_26_18
*1076 FILLER_0_26_194
*1077 FILLER_0_26_197
*1078 FILLER_0_26_209
*1079 FILLER_0_26_213
*1080 FILLER_0_26_27
*1081 FILLER_0_26_29
*1082 FILLER_0_26_41
*1083 FILLER_0_26_6
*1084 FILLER_0_26_70
*1085 FILLER_0_26_82
*1086 FILLER_0_26_85
*1087 FILLER_0_26_97
*1088 FILLER_0_27_111
*1089 FILLER_0_27_113
*1090 FILLER_0_27_117
*1091 FILLER_0_27_129
*1092 FILLER_0_27_141
*1093 FILLER_0_27_160
*1094 FILLER_0_27_166
*1095 FILLER_0_27_169
*1096 FILLER_0_27_181
*1097 FILLER_0_27_206
*1098 FILLER_0_27_34
*1099 FILLER_0_27_46
*1100 FILLER_0_27_54
*1101 FILLER_0_27_57
*1102 FILLER_0_27_68
*1103 FILLER_0_27_80
*1104 FILLER_0_27_84
*1105 FILLER_0_27_9
*1106 FILLER_0_27_94
*1107 FILLER_0_27_99
*1108 FILLER_0_28_113
*1109 FILLER_0_28_124
*1110 FILLER_0_28_136
*1111 FILLER_0_28_141
*1112 FILLER_0_28_145
*1113 FILLER_0_28_149
*1114 FILLER_0_28_16
*1115 FILLER_0_28_162
*1116 FILLER_0_28_166
*1117 FILLER_0_28_174
*1118 FILLER_0_28_186
*1119 FILLER_0_28_212
*1120 FILLER_0_28_26
*1121 FILLER_0_28_50
*1122 FILLER_0_28_6
*1123 FILLER_0_28_65
*1124 FILLER_0_28_79
*1125 FILLER_0_28_83
*1126 FILLER_0_28_85
*1127 FILLER_0_29_108
*1128 FILLER_0_29_113
*1129 FILLER_0_29_146
*1130 FILLER_0_29_160
*1131 FILLER_0_29_167
*1132 FILLER_0_29_180
*1133 FILLER_0_29_19
*1134 FILLER_0_29_199
*1135 FILLER_0_29_213
*1136 FILLER_0_29_26
*1137 FILLER_0_29_46
*1138 FILLER_0_29_54
*1139 FILLER_0_29_76
*1140 FILLER_0_29_80
*1141 FILLER_0_29_87
*1142 FILLER_0_29_96
*1143 FILLER_0_2_139
*1144 FILLER_0_2_141
*1145 FILLER_0_2_17
*1146 FILLER_0_2_189
*1147 FILLER_0_2_195
*1148 FILLER_0_2_197
*1149 FILLER_0_2_205
*1150 FILLER_0_2_211
*1151 FILLER_0_2_25
*1152 FILLER_0_2_29
*1153 FILLER_0_2_3
*1154 FILLER_0_2_35
*1155 FILLER_0_2_44
*1156 FILLER_0_2_52
*1157 FILLER_0_2_79
*1158 FILLER_0_2_83
*1159 FILLER_0_30_109
*1160 FILLER_0_30_117
*1161 FILLER_0_30_12
*1162 FILLER_0_30_128
*1163 FILLER_0_30_141
*1164 FILLER_0_30_153
*1165 FILLER_0_30_161
*1166 FILLER_0_30_18
*1167 FILLER_0_30_181
*1168 FILLER_0_30_200
*1169 FILLER_0_30_26
*1170 FILLER_0_30_29
*1171 FILLER_0_30_41
*1172 FILLER_0_30_47
*1173 FILLER_0_30_54
*1174 FILLER_0_30_6
*1175 FILLER_0_30_62
*1176 FILLER_0_30_85
*1177 FILLER_0_30_97
*1178 FILLER_0_31_100
*1179 FILLER_0_31_106
*1180 FILLER_0_31_113
*1181 FILLER_0_31_120
*1182 FILLER_0_31_155
*1183 FILLER_0_31_167
*1184 FILLER_0_31_169
*1185 FILLER_0_31_179
*1186 FILLER_0_31_203
*1187 FILLER_0_31_21
*1188 FILLER_0_31_211
*1189 FILLER_0_31_33
*1190 FILLER_0_31_50
*1191 FILLER_0_31_57
*1192 FILLER_0_31_69
*1193 FILLER_0_31_76
*1194 FILLER_0_31_88
*1195 FILLER_0_31_9
*1196 FILLER_0_32_100
*1197 FILLER_0_32_112
*1198 FILLER_0_32_120
*1199 FILLER_0_32_132
*1200 FILLER_0_32_15
*1201 FILLER_0_32_153
*1202 FILLER_0_32_165
*1203 FILLER_0_32_177
*1204 FILLER_0_32_194
*1205 FILLER_0_32_197
*1206 FILLER_0_32_209
*1207 FILLER_0_32_213
*1208 FILLER_0_32_26
*1209 FILLER_0_32_29
*1210 FILLER_0_32_3
*1211 FILLER_0_32_37
*1212 FILLER_0_32_54
*1213 FILLER_0_32_62
*1214 FILLER_0_32_72
*1215 FILLER_0_32_85
*1216 FILLER_0_33_100
*1217 FILLER_0_33_104
*1218 FILLER_0_33_108
*1219 FILLER_0_33_125
*1220 FILLER_0_33_14
*1221 FILLER_0_33_140
*1222 FILLER_0_33_150
*1223 FILLER_0_33_162
*1224 FILLER_0_33_169
*1225 FILLER_0_33_181
*1226 FILLER_0_33_193
*1227 FILLER_0_33_205
*1228 FILLER_0_33_211
*1229 FILLER_0_33_215
*1230 FILLER_0_33_40
*1231 FILLER_0_33_49
*1232 FILLER_0_33_55
*1233 FILLER_0_33_57
*1234 FILLER_0_33_6
*1235 FILLER_0_33_68
*1236 FILLER_0_33_80
*1237 FILLER_0_34_100
*1238 FILLER_0_34_108
*1239 FILLER_0_34_122
*1240 FILLER_0_34_138
*1241 FILLER_0_34_15
*1242 FILLER_0_34_168
*1243 FILLER_0_34_180
*1244 FILLER_0_34_19
*1245 FILLER_0_34_192
*1246 FILLER_0_34_197
*1247 FILLER_0_34_201
*1248 FILLER_0_34_23
*1249 FILLER_0_34_27
*1250 FILLER_0_34_29
*1251 FILLER_0_34_42
*1252 FILLER_0_34_52
*1253 FILLER_0_34_56
*1254 FILLER_0_34_88
*1255 FILLER_0_35_105
*1256 FILLER_0_35_111
*1257 FILLER_0_35_116
*1258 FILLER_0_35_123
*1259 FILLER_0_35_127
*1260 FILLER_0_35_134
*1261 FILLER_0_35_154
*1262 FILLER_0_35_166
*1263 FILLER_0_35_185
*1264 FILLER_0_35_193
*1265 FILLER_0_35_27
*1266 FILLER_0_35_3
*1267 FILLER_0_35_33
*1268 FILLER_0_35_50
*1269 FILLER_0_35_57
*1270 FILLER_0_35_61
*1271 FILLER_0_35_77
*1272 FILLER_0_35_85
*1273 FILLER_0_36_107
*1274 FILLER_0_36_111
*1275 FILLER_0_36_113
*1276 FILLER_0_36_118
*1277 FILLER_0_36_128
*1278 FILLER_0_36_132
*1279 FILLER_0_36_141
*1280 FILLER_0_36_147
*1281 FILLER_0_36_162
*1282 FILLER_0_36_167
*1283 FILLER_0_36_169
*1284 FILLER_0_36_177
*1285 FILLER_0_36_181
*1286 FILLER_0_36_191
*1287 FILLER_0_36_195
*1288 FILLER_0_36_197
*1289 FILLER_0_36_202
*1290 FILLER_0_36_210
*1291 FILLER_0_36_29
*1292 FILLER_0_36_3
*1293 FILLER_0_36_43
*1294 FILLER_0_36_48
*1295 FILLER_0_36_66
*1296 FILLER_0_36_72
*1297 FILLER_0_36_79
*1298 FILLER_0_36_83
*1299 FILLER_0_36_85
*1300 FILLER_0_36_90
*1301 FILLER_0_36_97
*1302 FILLER_0_3_110
*1303 FILLER_0_3_12
*1304 FILLER_0_3_127
*1305 FILLER_0_3_146
*1306 FILLER_0_3_150
*1307 FILLER_0_3_167
*1308 FILLER_0_3_169
*1309 FILLER_0_3_181
*1310 FILLER_0_3_193
*1311 FILLER_0_3_205
*1312 FILLER_0_3_36
*1313 FILLER_0_3_54
*1314 FILLER_0_3_57
*1315 FILLER_0_3_61
*1316 FILLER_0_3_92
*1317 FILLER_0_3_99
*1318 FILLER_0_4_103
*1319 FILLER_0_4_119
*1320 FILLER_0_4_137
*1321 FILLER_0_4_157
*1322 FILLER_0_4_161
*1323 FILLER_0_4_168
*1324 FILLER_0_4_17
*1325 FILLER_0_4_190
*1326 FILLER_0_4_197
*1327 FILLER_0_4_209
*1328 FILLER_0_4_213
*1329 FILLER_0_4_25
*1330 FILLER_0_4_3
*1331 FILLER_0_4_45
*1332 FILLER_0_4_70
*1333 FILLER_0_4_80
*1334 FILLER_0_4_85
*1335 FILLER_0_4_94
*1336 FILLER_0_5_103
*1337 FILLER_0_5_165
*1338 FILLER_0_5_169
*1339 FILLER_0_5_187
*1340 FILLER_0_5_199
*1341 FILLER_0_5_211
*1342 FILLER_0_5_27
*1343 FILLER_0_5_35
*1344 FILLER_0_5_45
*1345 FILLER_0_5_53
*1346 FILLER_0_5_57
*1347 FILLER_0_5_63
*1348 FILLER_0_5_80
*1349 FILLER_0_5_9
*1350 FILLER_0_5_99
*1351 FILLER_0_6_105
*1352 FILLER_0_6_132
*1353 FILLER_0_6_139
*1354 FILLER_0_6_141
*1355 FILLER_0_6_177
*1356 FILLER_0_6_197
*1357 FILLER_0_6_209
*1358 FILLER_0_6_27
*1359 FILLER_0_6_35
*1360 FILLER_0_6_67
*1361 FILLER_0_6_83
*1362 FILLER_0_6_93
*1363 FILLER_0_7_102
*1364 FILLER_0_7_110
*1365 FILLER_0_7_113
*1366 FILLER_0_7_117
*1367 FILLER_0_7_13
*1368 FILLER_0_7_138
*1369 FILLER_0_7_164
*1370 FILLER_0_7_191
*1371 FILLER_0_7_201
*1372 FILLER_0_7_213
*1373 FILLER_0_7_3
*1374 FILLER_0_7_55
*1375 FILLER_0_7_65
*1376 FILLER_0_7_85
*1377 FILLER_0_7_97
*1378 FILLER_0_8_109
*1379 FILLER_0_8_113
*1380 FILLER_0_8_122
*1381 FILLER_0_8_126
*1382 FILLER_0_8_133
*1383 FILLER_0_8_141
*1384 FILLER_0_8_145
*1385 FILLER_0_8_160
*1386 FILLER_0_8_169
*1387 FILLER_0_8_17
*1388 FILLER_0_8_195
*1389 FILLER_0_8_197
*1390 FILLER_0_8_209
*1391 FILLER_0_8_213
*1392 FILLER_0_8_37
*1393 FILLER_0_8_80
*1394 FILLER_0_8_85
*1395 FILLER_0_8_9
*1396 FILLER_0_8_93
*1397 FILLER_0_9_106
*1398 FILLER_0_9_120
*1399 FILLER_0_9_128
*1400 FILLER_0_9_135
*1401 FILLER_0_9_147
*1402 FILLER_0_9_161
*1403 FILLER_0_9_167
*1404 FILLER_0_9_169
*1405 FILLER_0_9_191
*1406 FILLER_0_9_199
*1407 FILLER_0_9_20
*1408 FILLER_0_9_217
*1409 FILLER_0_9_28
*1410 FILLER_0_9_3
*1411 FILLER_0_9_32
*1412 FILLER_0_9_53
*1413 FILLER_0_9_57
*1414 FILLER_0_9_77
*1415 FILLER_0_9_87
*1416 PHY_EDGE_ROW_0_Left_37
*1417 PHY_EDGE_ROW_0_Right_0
*1418 PHY_EDGE_ROW_10_Left_47
*1419 PHY_EDGE_ROW_10_Right_10
*1420 PHY_EDGE_ROW_11_Left_48
*1421 PHY_EDGE_ROW_11_Right_11
*1422 PHY_EDGE_ROW_12_Left_49
*1423 PHY_EDGE_ROW_12_Right_12
*1424 PHY_EDGE_ROW_13_Left_50
*1425 PHY_EDGE_ROW_13_Right_13
*1426 PHY_EDGE_ROW_14_Left_51
*1427 PHY_EDGE_ROW_14_Right_14
*1428 PHY_EDGE_ROW_15_Left_52
*1429 PHY_EDGE_ROW_15_Right_15
*1430 PHY_EDGE_ROW_16_Left_53
*1431 PHY_EDGE_ROW_16_Right_16
*1432 PHY_EDGE_ROW_17_Left_54
*1433 PHY_EDGE_ROW_17_Right_17
*1434 PHY_EDGE_ROW_18_Left_55
*1435 PHY_EDGE_ROW_18_Right_18
*1436 PHY_EDGE_ROW_19_Left_56
*1437 PHY_EDGE_ROW_19_Right_19
*1438 PHY_EDGE_ROW_1_Left_38
*1439 PHY_EDGE_ROW_1_Right_1
*1440 PHY_EDGE_ROW_20_Left_57
*1441 PHY_EDGE_ROW_20_Right_20
*1442 PHY_EDGE_ROW_21_Left_58
*1443 PHY_EDGE_ROW_21_Right_21
*1444 PHY_EDGE_ROW_22_Left_59
*1445 PHY_EDGE_ROW_22_Right_22
*1446 PHY_EDGE_ROW_23_Left_60
*1447 PHY_EDGE_ROW_23_Right_23
*1448 PHY_EDGE_ROW_24_Left_61
*1449 PHY_EDGE_ROW_24_Right_24
*1450 PHY_EDGE_ROW_25_Left_62
*1451 PHY_EDGE_ROW_25_Right_25
*1452 PHY_EDGE_ROW_26_Left_63
*1453 PHY_EDGE_ROW_26_Right_26
*1454 PHY_EDGE_ROW_27_Left_64
*1455 PHY_EDGE_ROW_27_Right_27
*1456 PHY_EDGE_ROW_28_Left_65
*1457 PHY_EDGE_ROW_28_Right_28
*1458 PHY_EDGE_ROW_29_Left_66
*1459 PHY_EDGE_ROW_29_Right_29
*1460 PHY_EDGE_ROW_2_Left_39
*1461 PHY_EDGE_ROW_2_Right_2
*1462 PHY_EDGE_ROW_30_Left_67
*1463 PHY_EDGE_ROW_30_Right_30
*1464 PHY_EDGE_ROW_31_Left_68
*1465 PHY_EDGE_ROW_31_Right_31
*1466 PHY_EDGE_ROW_32_Left_69
*1467 PHY_EDGE_ROW_32_Right_32
*1468 PHY_EDGE_ROW_33_Left_70
*1469 PHY_EDGE_ROW_33_Right_33
*1470 PHY_EDGE_ROW_34_Left_71
*1471 PHY_EDGE_ROW_34_Right_34
*1472 PHY_EDGE_ROW_35_Left_72
*1473 PHY_EDGE_ROW_35_Right_35
*1474 PHY_EDGE_ROW_36_Left_73
*1475 PHY_EDGE_ROW_36_Right_36
*1476 PHY_EDGE_ROW_3_Left_40
*1477 PHY_EDGE_ROW_3_Right_3
*1478 PHY_EDGE_ROW_4_Left_41
*1479 PHY_EDGE_ROW_4_Right_4
*1480 PHY_EDGE_ROW_5_Left_42
*1481 PHY_EDGE_ROW_5_Right_5
*1482 PHY_EDGE_ROW_6_Left_43
*1483 PHY_EDGE_ROW_6_Right_6
*1484 PHY_EDGE_ROW_7_Left_44
*1485 PHY_EDGE_ROW_7_Right_7
*1486 PHY_EDGE_ROW_8_Left_45
*1487 PHY_EDGE_ROW_8_Right_8
*1488 PHY_EDGE_ROW_9_Left_46
*1489 PHY_EDGE_ROW_9_Right_9
*1490 TAP_TAPCELL_ROW_0_74
*1491 TAP_TAPCELL_ROW_0_75
*1492 TAP_TAPCELL_ROW_0_76
*1493 TAP_TAPCELL_ROW_0_77
*1494 TAP_TAPCELL_ROW_0_78
*1495 TAP_TAPCELL_ROW_0_79
*1496 TAP_TAPCELL_ROW_0_80
*1497 TAP_TAPCELL_ROW_10_112
*1498 TAP_TAPCELL_ROW_10_113
*1499 TAP_TAPCELL_ROW_10_114
*1500 TAP_TAPCELL_ROW_10_115
*1501 TAP_TAPCELL_ROW_11_116
*1502 TAP_TAPCELL_ROW_11_117
*1503 TAP_TAPCELL_ROW_11_118
*1504 TAP_TAPCELL_ROW_12_119
*1505 TAP_TAPCELL_ROW_12_120
*1506 TAP_TAPCELL_ROW_12_121
*1507 TAP_TAPCELL_ROW_12_122
*1508 TAP_TAPCELL_ROW_13_123
*1509 TAP_TAPCELL_ROW_13_124
*1510 TAP_TAPCELL_ROW_13_125
*1511 TAP_TAPCELL_ROW_14_126
*1512 TAP_TAPCELL_ROW_14_127
*1513 TAP_TAPCELL_ROW_14_128
*1514 TAP_TAPCELL_ROW_14_129
*1515 TAP_TAPCELL_ROW_15_130
*1516 TAP_TAPCELL_ROW_15_131
*1517 TAP_TAPCELL_ROW_15_132
*1518 TAP_TAPCELL_ROW_16_133
*1519 TAP_TAPCELL_ROW_16_134
*1520 TAP_TAPCELL_ROW_16_135
*1521 TAP_TAPCELL_ROW_16_136
*1522 TAP_TAPCELL_ROW_17_137
*1523 TAP_TAPCELL_ROW_17_138
*1524 TAP_TAPCELL_ROW_17_139
*1525 TAP_TAPCELL_ROW_18_140
*1526 TAP_TAPCELL_ROW_18_141
*1527 TAP_TAPCELL_ROW_18_142
*1528 TAP_TAPCELL_ROW_18_143
*1529 TAP_TAPCELL_ROW_19_144
*1530 TAP_TAPCELL_ROW_19_145
*1531 TAP_TAPCELL_ROW_19_146
*1532 TAP_TAPCELL_ROW_1_81
*1533 TAP_TAPCELL_ROW_1_82
*1534 TAP_TAPCELL_ROW_1_83
*1535 TAP_TAPCELL_ROW_20_147
*1536 TAP_TAPCELL_ROW_20_148
*1537 TAP_TAPCELL_ROW_20_149
*1538 TAP_TAPCELL_ROW_20_150
*1539 TAP_TAPCELL_ROW_21_151
*1540 TAP_TAPCELL_ROW_21_152
*1541 TAP_TAPCELL_ROW_21_153
*1542 TAP_TAPCELL_ROW_22_154
*1543 TAP_TAPCELL_ROW_22_155
*1544 TAP_TAPCELL_ROW_22_156
*1545 TAP_TAPCELL_ROW_22_157
*1546 TAP_TAPCELL_ROW_23_158
*1547 TAP_TAPCELL_ROW_23_159
*1548 TAP_TAPCELL_ROW_23_160
*1549 TAP_TAPCELL_ROW_24_161
*1550 TAP_TAPCELL_ROW_24_162
*1551 TAP_TAPCELL_ROW_24_163
*1552 TAP_TAPCELL_ROW_24_164
*1553 TAP_TAPCELL_ROW_25_165
*1554 TAP_TAPCELL_ROW_25_166
*1555 TAP_TAPCELL_ROW_25_167
*1556 TAP_TAPCELL_ROW_26_168
*1557 TAP_TAPCELL_ROW_26_169
*1558 TAP_TAPCELL_ROW_26_170
*1559 TAP_TAPCELL_ROW_26_171
*1560 TAP_TAPCELL_ROW_27_172
*1561 TAP_TAPCELL_ROW_27_173
*1562 TAP_TAPCELL_ROW_27_174
*1563 TAP_TAPCELL_ROW_28_175
*1564 TAP_TAPCELL_ROW_28_176
*1565 TAP_TAPCELL_ROW_28_177
*1566 TAP_TAPCELL_ROW_28_178
*1567 TAP_TAPCELL_ROW_29_179
*1568 TAP_TAPCELL_ROW_29_180
*1569 TAP_TAPCELL_ROW_29_181
*1570 TAP_TAPCELL_ROW_2_84
*1571 TAP_TAPCELL_ROW_2_85
*1572 TAP_TAPCELL_ROW_2_86
*1573 TAP_TAPCELL_ROW_2_87
*1574 TAP_TAPCELL_ROW_30_182
*1575 TAP_TAPCELL_ROW_30_183
*1576 TAP_TAPCELL_ROW_30_184
*1577 TAP_TAPCELL_ROW_30_185
*1578 TAP_TAPCELL_ROW_31_186
*1579 TAP_TAPCELL_ROW_31_187
*1580 TAP_TAPCELL_ROW_31_188
*1581 TAP_TAPCELL_ROW_32_189
*1582 TAP_TAPCELL_ROW_32_190
*1583 TAP_TAPCELL_ROW_32_191
*1584 TAP_TAPCELL_ROW_32_192
*1585 TAP_TAPCELL_ROW_33_193
*1586 TAP_TAPCELL_ROW_33_194
*1587 TAP_TAPCELL_ROW_33_195
*1588 TAP_TAPCELL_ROW_34_196
*1589 TAP_TAPCELL_ROW_34_197
*1590 TAP_TAPCELL_ROW_34_198
*1591 TAP_TAPCELL_ROW_34_199
*1592 TAP_TAPCELL_ROW_35_200
*1593 TAP_TAPCELL_ROW_35_201
*1594 TAP_TAPCELL_ROW_35_202
*1595 TAP_TAPCELL_ROW_36_203
*1596 TAP_TAPCELL_ROW_36_204
*1597 TAP_TAPCELL_ROW_36_205
*1598 TAP_TAPCELL_ROW_36_206
*1599 TAP_TAPCELL_ROW_36_207
*1600 TAP_TAPCELL_ROW_36_208
*1601 TAP_TAPCELL_ROW_36_209
*1602 TAP_TAPCELL_ROW_3_88
*1603 TAP_TAPCELL_ROW_3_89
*1604 TAP_TAPCELL_ROW_3_90
*1605 TAP_TAPCELL_ROW_4_91
*1606 TAP_TAPCELL_ROW_4_92
*1607 TAP_TAPCELL_ROW_4_93
*1608 TAP_TAPCELL_ROW_4_94
*1609 TAP_TAPCELL_ROW_5_95
*1610 TAP_TAPCELL_ROW_5_96
*1611 TAP_TAPCELL_ROW_5_97
*1612 TAP_TAPCELL_ROW_6_100
*1613 TAP_TAPCELL_ROW_6_101
*1614 TAP_TAPCELL_ROW_6_98
*1615 TAP_TAPCELL_ROW_6_99
*1616 TAP_TAPCELL_ROW_7_102
*1617 TAP_TAPCELL_ROW_7_103
*1618 TAP_TAPCELL_ROW_7_104
*1619 TAP_TAPCELL_ROW_8_105
*1620 TAP_TAPCELL_ROW_8_106
*1621 TAP_TAPCELL_ROW_8_107
*1622 TAP_TAPCELL_ROW_8_108
*1623 TAP_TAPCELL_ROW_9_109
*1624 TAP_TAPCELL_ROW_9_110
*1625 TAP_TAPCELL_ROW_9_111
*1626 _429_
*1627 _430_
*1628 _431_
*1629 _432_
*1630 _433_
*1631 _434_
*1632 _435_
*1633 _436_
*1634 _437_
*1635 _438_
*1636 _439_
*1637 _440_
*1638 _441_
*1639 _442_
*1640 _443_
*1641 _444_
*1642 _445_
*1643 _446_
*1644 _447_
*1645 _448_
*1646 _449_
*1647 _450_
*1648 _451_
*1649 _452_
*1650 _453_
*1651 _454_
*1652 _455_
*1653 _456_
*1654 _457_
*1655 _458_
*1656 _459_
*1657 _460_
*1658 _461_
*1659 _462_
*1660 _463_
*1661 _464_
*1662 _465_
*1663 _466_
*1664 _467_
*1665 _468_
*1666 _469_
*1667 _470_
*1668 _471_
*1669 _472_
*1670 _473_
*1671 _474_
*1672 _475_
*1673 _476_
*1674 _477_
*1675 _478_
*1676 _479_
*1677 _480_
*1678 _481_
*1679 _482_
*1680 _483_
*1681 _484_
*1682 _485_
*1683 _486_
*1684 _487_
*1685 _488_
*1686 _489_
*1687 _490_
*1688 _491_
*1689 _492_
*1690 _493_
*1691 _494_