* NGSPICE file created from mult_sec_32.ext - technology: sky130A

* Black-box entry subcircuit for sky130_fd_sc_hd__nor2_2 abstract view
.subckt sky130_fd_sc_hd__nor2_2 A B VGND VNB VPB VPWR Y
.ends

* Black-box entry subcircuit for sky130_fd_sc_hd__nand2_1 abstract view
.subckt sky130_fd_sc_hd__nand2_1 A B VGND VNB VPB VPWR Y
.ends

* Black-box entry subcircuit for sky130_fd_sc_hd__decap_6 abstract view
.subckt sky130_fd_sc_hd__decap_6 VGND VNB VPB VPWR
.ends

* Black-box entry subcircuit for sky130_ef_sc_hd__decap_12 abstract view
.subckt sky130_ef_sc_hd__decap_12 VGND VPWR VPB VNB
.ends

* Black-box entry subcircuit for sky130_fd_sc_hd__dfxtp_1 abstract view
.subckt sky130_fd_sc_hd__dfxtp_1 CLK D VGND VNB VPB VPWR Q
.ends

* Black-box entry subcircuit for sky130_fd_sc_hd__decap_4 abstract view
.subckt sky130_fd_sc_hd__decap_4 VGND VNB VPB VPWR
.ends

* Black-box entry subcircuit for sky130_fd_sc_hd__fill_1 abstract view
.subckt sky130_fd_sc_hd__fill_1 VGND VNB VPB VPWR
.ends

* Black-box entry subcircuit for sky130_fd_sc_hd__decap_3 abstract view
.subckt sky130_fd_sc_hd__decap_3 VGND VNB VPB VPWR
.ends

* Black-box entry subcircuit for sky130_fd_sc_hd__a21oi_1 abstract view
.subckt sky130_fd_sc_hd__a21oi_1 A1 A2 B1 VGND VNB VPB VPWR Y
.ends

* Black-box entry subcircuit for sky130_fd_sc_hd__dfxtp_2 abstract view
.subckt sky130_fd_sc_hd__dfxtp_2 CLK D VGND VNB VPB VPWR Q
.ends

* Black-box entry subcircuit for sky130_fd_sc_hd__fill_2 abstract view
.subckt sky130_fd_sc_hd__fill_2 VGND VNB VPB VPWR
.ends

* Black-box entry subcircuit for sky130_fd_sc_hd__decap_8 abstract view
.subckt sky130_fd_sc_hd__decap_8 VGND VNB VPB VPWR
.ends

* Black-box entry subcircuit for sky130_fd_sc_hd__o21a_1 abstract view
.subckt sky130_fd_sc_hd__o21a_1 A1 A2 B1 VGND VNB VPB VPWR X
.ends

* Black-box entry subcircuit for sky130_fd_sc_hd__dlygate4sd3_1 abstract view
.subckt sky130_fd_sc_hd__dlygate4sd3_1 A VGND VNB VPB VPWR X
.ends

* Black-box entry subcircuit for sky130_fd_sc_hd__and2_1 abstract view
.subckt sky130_fd_sc_hd__and2_1 A B VGND VNB VPB VPWR X
.ends

* Black-box entry subcircuit for sky130_fd_sc_hd__nor2_1 abstract view
.subckt sky130_fd_sc_hd__nor2_1 A B VGND VNB VPB VPWR Y
.ends

* Black-box entry subcircuit for sky130_fd_sc_hd__buf_2 abstract view
.subckt sky130_fd_sc_hd__buf_2 A VGND VNB VPB VPWR X
.ends

* Black-box entry subcircuit for sky130_fd_sc_hd__xnor2_1 abstract view
.subckt sky130_fd_sc_hd__xnor2_1 A B VGND VNB VPB VPWR Y
.ends

* Black-box entry subcircuit for sky130_fd_sc_hd__clkbuf_4 abstract view
.subckt sky130_fd_sc_hd__clkbuf_4 A VGND VNB VPB VPWR X
.ends

* Black-box entry subcircuit for sky130_fd_sc_hd__tapvpwrvgnd_1 abstract view
.subckt sky130_fd_sc_hd__tapvpwrvgnd_1 VGND VPWR
.ends

* Black-box entry subcircuit for sky130_fd_sc_hd__or2_1 abstract view
.subckt sky130_fd_sc_hd__or2_1 A B VGND VNB VPB VPWR X
.ends

* Black-box entry subcircuit for sky130_fd_sc_hd__inv_2 abstract view
.subckt sky130_fd_sc_hd__inv_2 A VGND VNB VPB VPWR Y
.ends

* Black-box entry subcircuit for sky130_fd_sc_hd__clkbuf_16 abstract view
.subckt sky130_fd_sc_hd__clkbuf_16 A VGND VNB VPB VPWR X
.ends

* Black-box entry subcircuit for sky130_fd_sc_hd__a221o_1 abstract view
.subckt sky130_fd_sc_hd__a221o_1 A1 A2 B1 B2 C1 VGND VNB VPB VPWR X
.ends

* Black-box entry subcircuit for sky130_fd_sc_hd__mux2_1 abstract view
.subckt sky130_fd_sc_hd__mux2_1 A0 A1 S VGND VNB VPB VPWR X
.ends

* Black-box entry subcircuit for sky130_fd_sc_hd__a21boi_1 abstract view
.subckt sky130_fd_sc_hd__a21boi_1 A1 A2 B1_N VGND VNB VPB VPWR Y
.ends

* Black-box entry subcircuit for sky130_fd_sc_hd__clkbuf_2 abstract view
.subckt sky130_fd_sc_hd__clkbuf_2 A VGND VNB VPB VPWR X
.ends

* Black-box entry subcircuit for sky130_fd_sc_hd__a31o_1 abstract view
.subckt sky130_fd_sc_hd__a31o_1 A1 A2 A3 B1 VGND VNB VPB VPWR X
.ends

* Black-box entry subcircuit for sky130_fd_sc_hd__o311a_1 abstract view
.subckt sky130_fd_sc_hd__o311a_1 A1 A2 A3 B1 C1 VGND VNB VPB VPWR X
.ends

* Black-box entry subcircuit for sky130_fd_sc_hd__clkbuf_1 abstract view
.subckt sky130_fd_sc_hd__clkbuf_1 A VGND VNB VPB VPWR X
.ends

* Black-box entry subcircuit for sky130_fd_sc_hd__o221a_1 abstract view
.subckt sky130_fd_sc_hd__o221a_1 A1 A2 B1 B2 C1 VGND VNB VPB VPWR X
.ends

* Black-box entry subcircuit for sky130_fd_sc_hd__xnor2_2 abstract view
.subckt sky130_fd_sc_hd__xnor2_2 A B VGND VNB VPB VPWR Y
.ends

* Black-box entry subcircuit for sky130_fd_sc_hd__o31a_1 abstract view
.subckt sky130_fd_sc_hd__o31a_1 A1 A2 A3 B1 VGND VNB VPB VPWR X
.ends

* Black-box entry subcircuit for sky130_fd_sc_hd__a21o_1 abstract view
.subckt sky130_fd_sc_hd__a21o_1 A1 A2 B1 VGND VNB VPB VPWR X
.ends

* Black-box entry subcircuit for sky130_fd_sc_hd__and3_1 abstract view
.subckt sky130_fd_sc_hd__and3_1 A B C VGND VNB VPB VPWR X
.ends

* Black-box entry subcircuit for sky130_fd_sc_hd__or2b_1 abstract view
.subckt sky130_fd_sc_hd__or2b_1 A B_N VGND VNB VPB VPWR X
.ends

* Black-box entry subcircuit for sky130_fd_sc_hd__o21ba_1 abstract view
.subckt sky130_fd_sc_hd__o21ba_1 A1 A2 B1_N VGND VNB VPB VPWR X
.ends

* Black-box entry subcircuit for sky130_fd_sc_hd__o21ai_1 abstract view
.subckt sky130_fd_sc_hd__o21ai_1 A1 A2 B1 VGND VNB VPB VPWR Y
.ends

* Black-box entry subcircuit for sky130_fd_sc_hd__o211a_1 abstract view
.subckt sky130_fd_sc_hd__o211a_1 A1 A2 B1 C1 VGND VNB VPB VPWR X
.ends

* Black-box entry subcircuit for sky130_fd_sc_hd__nor3_1 abstract view
.subckt sky130_fd_sc_hd__nor3_1 A B C VGND VNB VPB VPWR Y
.ends

* Black-box entry subcircuit for sky130_fd_sc_hd__a211o_1 abstract view
.subckt sky130_fd_sc_hd__a211o_1 A1 A2 B1 C1 VGND VNB VPB VPWR X
.ends

* Black-box entry subcircuit for sky130_fd_sc_hd__and4_1 abstract view
.subckt sky130_fd_sc_hd__and4_1 A B C D VGND VNB VPB VPWR X
.ends

* Black-box entry subcircuit for sky130_fd_sc_hd__a31oi_1 abstract view
.subckt sky130_fd_sc_hd__a31oi_1 A1 A2 A3 B1 VGND VNB VPB VPWR Y
.ends

* Black-box entry subcircuit for sky130_fd_sc_hd__or3b_1 abstract view
.subckt sky130_fd_sc_hd__or3b_1 A B C_N VGND VNB VPB VPWR X
.ends

* Black-box entry subcircuit for sky130_fd_sc_hd__a21bo_1 abstract view
.subckt sky130_fd_sc_hd__a21bo_1 A1 A2 B1_N VGND VNB VPB VPWR X
.ends

* Black-box entry subcircuit for sky130_fd_sc_hd__buf_4 abstract view
.subckt sky130_fd_sc_hd__buf_4 A VGND VNB VPB VPWR X
.ends

* Black-box entry subcircuit for sky130_fd_sc_hd__xor2_1 abstract view
.subckt sky130_fd_sc_hd__xor2_1 A B VGND VNB VPB VPWR X
.ends

* Black-box entry subcircuit for sky130_fd_sc_hd__buf_1 abstract view
.subckt sky130_fd_sc_hd__buf_1 A VGND VNB VPB VPWR X
.ends

* Black-box entry subcircuit for sky130_fd_sc_hd__and3b_1 abstract view
.subckt sky130_fd_sc_hd__and3b_1 A_N B C VGND VNB VPB VPWR X
.ends

* Black-box entry subcircuit for sky130_fd_sc_hd__dlymetal6s2s_1 abstract view
.subckt sky130_fd_sc_hd__dlymetal6s2s_1 A VGND VNB VPB VPWR X
.ends

* Black-box entry subcircuit for sky130_fd_sc_hd__o22a_1 abstract view
.subckt sky130_fd_sc_hd__o22a_1 A1 A2 B1 B2 VGND VNB VPB VPWR X
.ends

* Black-box entry subcircuit for sky130_fd_sc_hd__nand3_1 abstract view
.subckt sky130_fd_sc_hd__nand3_1 A B C VGND VNB VPB VPWR Y
.ends

* Black-box entry subcircuit for sky130_fd_sc_hd__or4_1 abstract view
.subckt sky130_fd_sc_hd__or4_1 A B C D VGND VNB VPB VPWR X
.ends

* Black-box entry subcircuit for sky130_fd_sc_hd__a2111o_1 abstract view
.subckt sky130_fd_sc_hd__a2111o_1 A1 A2 B1 C1 D1 VGND VNB VPB VPWR X
.ends

* Black-box entry subcircuit for sky130_fd_sc_hd__a2bb2o_1 abstract view
.subckt sky130_fd_sc_hd__a2bb2o_1 A1_N A2_N B1 B2 VGND VNB VPB VPWR X
.ends

* Black-box entry subcircuit for sky130_fd_sc_hd__a311o_2 abstract view
.subckt sky130_fd_sc_hd__a311o_2 A1 A2 A3 B1 C1 VGND VNB VPB VPWR X
.ends

* Black-box entry subcircuit for sky130_fd_sc_hd__a21oi_2 abstract view
.subckt sky130_fd_sc_hd__a21oi_2 A1 A2 B1 VGND VNB VPB VPWR Y
.ends

* Black-box entry subcircuit for sky130_fd_sc_hd__o21ai_2 abstract view
.subckt sky130_fd_sc_hd__o21ai_2 A1 A2 B1 VGND VNB VPB VPWR Y
.ends

* Black-box entry subcircuit for sky130_fd_sc_hd__and2b_1 abstract view
.subckt sky130_fd_sc_hd__and2b_1 A_N B VGND VNB VPB VPWR X
.ends

* Black-box entry subcircuit for sky130_fd_sc_hd__or3_1 abstract view
.subckt sky130_fd_sc_hd__or3_1 A B C VGND VNB VPB VPWR X
.ends

* Black-box entry subcircuit for sky130_fd_sc_hd__diode_2 abstract view
.subckt sky130_fd_sc_hd__diode_2 DIODE VGND VNB VPB VPWR
.ends

* Black-box entry subcircuit for sky130_fd_sc_hd__a21bo_2 abstract view
.subckt sky130_fd_sc_hd__a21bo_2 A1 A2 B1_N VGND VNB VPB VPWR X
.ends

.subckt mult_sec_32 VGND VPWR clk done mcand[0] mcand[10] mcand[11] mcand[12] mcand[13]
+ mcand[14] mcand[15] mcand[16] mcand[17] mcand[18] mcand[19] mcand[1] mcand[20] mcand[21]
+ mcand[22] mcand[23] mcand[24] mcand[25] mcand[26] mcand[27] mcand[28] mcand[29]
+ mcand[2] mcand[30] mcand[31] mcand[3] mcand[4] mcand[5] mcand[6] mcand[7] mcand[8]
+ mcand[9] mplier[0] mplier[10] mplier[11] mplier[12] mplier[13] mplier[14] mplier[15]
+ mplier[16] mplier[17] mplier[18] mplier[19] mplier[1] mplier[20] mplier[21] mplier[22]
+ mplier[23] mplier[24] mplier[25] mplier[26] mplier[27] mplier[28] mplier[29] mplier[2]
+ mplier[30] mplier[31] mplier[3] mplier[4] mplier[5] mplier[6] mplier[7] mplier[8]
+ mplier[9] product[0] product[10] product[11] product[12] product[13] product[14]
+ product[15] product[16] product[17] product[18] product[19] product[1] product[20]
+ product[21] product[22] product[23] product[24] product[25] product[26] product[27]
+ product[28] product[29] product[2] product[30] product[31] product[32] product[33]
+ product[34] product[35] product[36] product[37] product[38] product[39] product[3]
+ product[40] product[41] product[42] product[43] product[44] product[45] product[46]
+ product[47] product[48] product[49] product[4] product[50] product[51] product[52]
+ product[53] product[54] product[55] product[56] product[57] product[58] product[59]
+ product[5] product[60] product[61] product[62] product[63] product[6] product[7]
+ product[8] product[9] st
X_432_ estado_act\[1\] estado_act\[0\] VGND VGND VPWR VPWR _075_ sky130_fd_sc_hd__nor2_2
X_501_ _135_ _136_ VGND VGND VPWR VPWR _137_ sky130_fd_sc_hd__nand2_1
XFILLER_0_18_29 VGND VGND VPWR VPWR sky130_fd_sc_hd__decap_6
XFILLER_0_24_94 VGND VPWR VPWR VGND sky130_ef_sc_hd__decap_12
X_895_ clknet_3_2__leaf_clk _036_ VGND VGND VPWR VPWR net78 sky130_fd_sc_hd__dfxtp_1
XFILLER_0_28_136 VGND VGND VPWR VPWR sky130_fd_sc_hd__decap_4
XFILLER_0_36_191 VGND VGND VPWR VPWR sky130_fd_sc_hd__fill_1
XFILLER_0_10_85 VGND VPWR VPWR VGND sky130_ef_sc_hd__decap_12
XFILLER_0_19_169 VGND VGND VPWR VPWR sky130_fd_sc_hd__decap_3
X_680_ _295_ _296_ _297_ VGND VGND VPWR VPWR _298_ sky130_fd_sc_hd__a21oi_1
XFILLER_0_33_150 VGND VPWR VPWR VGND sky130_ef_sc_hd__decap_12
X_878_ clknet_3_7__leaf_clk _019_ VGND VGND VPWR VPWR net110 sky130_fd_sc_hd__dfxtp_2
XFILLER_0_16_139 VGND VGND VPWR VPWR sky130_fd_sc_hd__fill_1
XFILLER_0_15_194 VGND VGND VPWR VPWR sky130_fd_sc_hd__fill_2
XFILLER_0_30_153 VGND VGND VPWR VPWR sky130_fd_sc_hd__decap_8
X_801_ net165 _390_ _396_ VGND VGND VPWR VPWR _047_ sky130_fd_sc_hd__o21a_1
Xhold30 _424_ VGND VGND VPWR VPWR net160 sky130_fd_sc_hd__dlygate4sd3_1
Xhold41 net127 VGND VGND VPWR VPWR net171 sky130_fd_sc_hd__dlygate4sd3_1
X_732_ _177_ _344_ VGND VGND VPWR VPWR _345_ sky130_fd_sc_hd__and2_1
XFILLER_0_26_18 VGND VGND VPWR VPWR sky130_fd_sc_hd__fill_1
XFILLER_0_26_29 VGND VPWR VPWR VGND sky130_ef_sc_hd__decap_12
X_663_ _095_ _282_ VGND VGND VPWR VPWR _283_ sky130_fd_sc_hd__nor2_1
X_594_ _177_ _220_ VGND VGND VPWR VPWR _221_ sky130_fd_sc_hd__and2_1
XFILLER_0_21_175 VGND VGND VPWR VPWR sky130_fd_sc_hd__fill_1
XFILLER_0_21_197 VGND VGND VPWR VPWR sky130_fd_sc_hd__fill_2
XFILLER_0_8_169 VGND VGND VPWR VPWR sky130_fd_sc_hd__decap_4
XFILLER_0_32_72 VGND VPWR VPWR VGND sky130_ef_sc_hd__decap_12
XFILLER_0_12_197 VGND VGND VPWR VPWR sky130_fd_sc_hd__fill_1
XFILLER_0_7_191 VGND VGND VPWR VPWR sky130_fd_sc_hd__fill_2
Xoutput75 net75 VGND VGND VPWR VPWR product[17] sky130_fd_sc_hd__buf_2
X_715_ _327_ _328_ VGND VGND VPWR VPWR _329_ sky130_fd_sc_hd__xnor2_1
Xoutput97 net97 VGND VGND VPWR VPWR product[37] sky130_fd_sc_hd__buf_2
Xoutput86 net86 VGND VGND VPWR VPWR product[27] sky130_fd_sc_hd__clkbuf_4
X_646_ _265_ _266_ VGND VGND VPWR VPWR _267_ sky130_fd_sc_hd__nand2_1
XTAP_TAPCELL_ROW_26_170 VGND VPWR sky130_fd_sc_hd__tapvpwrvgnd_1
X_577_ _177_ _205_ VGND VGND VPWR VPWR _206_ sky130_fd_sc_hd__and2_1
XFILLER_0_27_94 VGND VGND VPWR VPWR sky130_fd_sc_hd__fill_2
XFILLER_0_4_161 VGND VGND VPWR VPWR sky130_fd_sc_hd__fill_1
X_500_ net97 net28 VGND VGND VPWR VPWR _136_ sky130_fd_sc_hd__or2_1
X_431_ net65 VGND VGND VPWR VPWR _074_ sky130_fd_sc_hd__inv_2
Xclkbuf_3_6__f_clk clknet_0_clk VGND VGND VPWR VPWR clknet_3_6__leaf_clk sky130_fd_sc_hd__clkbuf_16
X_629_ _250_ _251_ VGND VGND VPWR VPWR _252_ sky130_fd_sc_hd__nand2_1
XFILLER_0_34_29 VGND VGND VPWR VPWR sky130_fd_sc_hd__decap_8
XFILLER_0_24_62 VGND VGND VPWR VPWR sky130_fd_sc_hd__fill_1
XPHY_EDGE_ROW_12_Right_12 VGND VGND VPWR VPWR sky130_fd_sc_hd__decap_3
XFILLER_0_4_94 VGND VGND VPWR VPWR sky130_fd_sc_hd__fill_1
XPHY_EDGE_ROW_21_Right_21 VGND VGND VPWR VPWR sky130_fd_sc_hd__decap_3
XPHY_EDGE_ROW_30_Right_30 VGND VGND VPWR VPWR sky130_fd_sc_hd__decap_3
X_894_ clknet_3_2__leaf_clk _035_ VGND VGND VPWR VPWR net67 sky130_fd_sc_hd__dfxtp_2
XFILLER_0_36_181 VGND VGND VPWR VPWR sky130_fd_sc_hd__decap_4
XFILLER_0_9_28 VGND VGND VPWR VPWR sky130_fd_sc_hd__decap_4
XFILLER_0_10_97 VGND VGND VPWR VPWR sky130_fd_sc_hd__decap_6
XFILLER_0_35_50 VGND VGND VPWR VPWR sky130_fd_sc_hd__decap_6
XFILLER_0_35_61 VGND VGND VPWR VPWR sky130_fd_sc_hd__fill_1
XFILLER_0_27_181 VGND VGND VPWR VPWR sky130_fd_sc_hd__decap_3
XFILLER_0_18_170 VGND VGND VPWR VPWR sky130_fd_sc_hd__decap_8
XFILLER_0_33_140 VGND VGND VPWR VPWR sky130_fd_sc_hd__decap_3
XFILLER_0_33_162 VGND VGND VPWR VPWR sky130_fd_sc_hd__decap_6
X_877_ clknet_3_5__leaf_clk _018_ VGND VGND VPWR VPWR net109 sky130_fd_sc_hd__dfxtp_1
XFILLER_0_21_52 VGND VGND VPWR VPWR sky130_fd_sc_hd__decap_4
XFILLER_0_24_151 VGND VPWR VPWR VGND sky130_ef_sc_hd__decap_12
XFILLER_0_1_51 VGND VGND VPWR VPWR sky130_fd_sc_hd__decap_4
Xhold31 net71 VGND VGND VPWR VPWR net161 sky130_fd_sc_hd__dlygate4sd3_1
Xhold42 net128 VGND VGND VPWR VPWR net172 sky130_fd_sc_hd__dlygate4sd3_1
X_800_ net36 _388_ _392_ net71 _393_ VGND VGND VPWR VPWR _396_ sky130_fd_sc_hd__a221o_1
Xhold20 cnt_act\[1\] VGND VGND VPWR VPWR net150 sky130_fd_sc_hd__dlygate4sd3_1
X_731_ net123 _343_ _099_ VGND VGND VPWR VPWR _344_ sky130_fd_sc_hd__mux2_1
X_662_ _280_ _281_ VGND VGND VPWR VPWR _282_ sky130_fd_sc_hd__xnor2_1
X_593_ net107 _219_ _166_ VGND VGND VPWR VPWR _220_ sky130_fd_sc_hd__mux2_1
X_929_ clknet_3_3__leaf_clk _070_ VGND VGND VPWR VPWR cnt_act\[3\] sky130_fd_sc_hd__dfxtp_1
XFILLER_0_16_41 VGND VGND VPWR VPWR sky130_fd_sc_hd__fill_1
XFILLER_0_16_85 VGND VPWR VPWR VGND sky130_ef_sc_hd__decap_12
XFILLER_0_8_126 VGND VGND VPWR VPWR sky130_fd_sc_hd__fill_1
XFILLER_0_32_62 VGND VGND VPWR VPWR sky130_fd_sc_hd__fill_2
XPHY_EDGE_ROW_6_Right_6 VGND VGND VPWR VPWR sky130_fd_sc_hd__decap_3
XFILLER_0_12_121 VGND VPWR VPWR VGND sky130_ef_sc_hd__decap_12
Xoutput76 net76 VGND VGND VPWR VPWR product[18] sky130_fd_sc_hd__clkbuf_4
Xoutput87 net87 VGND VGND VPWR VPWR product[28] sky130_fd_sc_hd__clkbuf_4
Xoutput98 net98 VGND VGND VPWR VPWR product[38] sky130_fd_sc_hd__buf_2
X_714_ _319_ _322_ _320_ VGND VGND VPWR VPWR _328_ sky130_fd_sc_hd__a21boi_1
X_645_ net114 net13 VGND VGND VPWR VPWR _266_ sky130_fd_sc_hd__nand2_1
XTAP_TAPCELL_ROW_26_171 VGND VPWR sky130_fd_sc_hd__tapvpwrvgnd_1
XFILLER_0_26_213 VGND VGND VPWR VPWR sky130_fd_sc_hd__fill_1
X_576_ net105 _204_ _166_ VGND VGND VPWR VPWR _205_ sky130_fd_sc_hd__mux2_1
XFILLER_0_27_84 VGND VGND VPWR VPWR sky130_fd_sc_hd__fill_1
X_430_ _073_ VGND VGND VPWR VPWR net66 sky130_fd_sc_hd__clkbuf_2
XFILLER_0_23_216 VGND VGND VPWR VPWR sky130_fd_sc_hd__fill_2
X_628_ net112 net10 VGND VGND VPWR VPWR _251_ sky130_fd_sc_hd__or2_1
XFILLER_0_13_53 VGND VGND VPWR VPWR sky130_fd_sc_hd__decap_3
XFILLER_0_14_216 VGND VGND VPWR VPWR sky130_fd_sc_hd__fill_2
X_559_ _185_ _186_ _187_ _094_ VGND VGND VPWR VPWR _189_ sky130_fd_sc_hd__a31o_1
XTAP_TAPCELL_ROW_3_90 VGND VPWR sky130_fd_sc_hd__tapvpwrvgnd_1
XFILLER_0_34_19 VGND VGND VPWR VPWR sky130_fd_sc_hd__fill_1
XFILLER_0_29_19 VGND VGND VPWR VPWR sky130_fd_sc_hd__fill_1
X_893_ clknet_3_1__leaf_clk _034_ VGND VGND VPWR VPWR acu_act\[64\] sky130_fd_sc_hd__dfxtp_1
XFILLER_0_3_205 VGND VGND VPWR VPWR sky130_fd_sc_hd__decap_6
XFILLER_0_28_149 VGND VGND VPWR VPWR sky130_fd_sc_hd__decap_8
XTAP_TAPCELL_ROW_0_80 VGND VPWR sky130_fd_sc_hd__tapvpwrvgnd_1
XFILLER_0_19_63 VGND VGND VPWR VPWR sky130_fd_sc_hd__decap_4
XFILLER_0_27_160 VGND VGND VPWR VPWR sky130_fd_sc_hd__decap_3
XFILLER_0_34_108 VGND VGND VPWR VPWR sky130_fd_sc_hd__fill_1
XFILLER_0_25_119 VGND VGND VPWR VPWR sky130_fd_sc_hd__decap_8
XPHY_EDGE_ROW_28_Left_65 VGND VGND VPWR VPWR sky130_fd_sc_hd__decap_3
X_876_ clknet_3_5__leaf_clk _017_ VGND VGND VPWR VPWR net108 sky130_fd_sc_hd__dfxtp_2
XPHY_EDGE_ROW_12_Left_49 VGND VGND VPWR VPWR sky130_fd_sc_hd__decap_3
XFILLER_0_24_141 VGND VGND VPWR VPWR sky130_fd_sc_hd__decap_4
XFILLER_0_24_163 VGND VPWR VPWR VGND sky130_ef_sc_hd__decap_12
XFILLER_0_24_185 VGND VGND VPWR VPWR sky130_fd_sc_hd__fill_1
Xhold43 net74 VGND VGND VPWR VPWR net173 sky130_fd_sc_hd__dlygate4sd3_1
Xhold32 net85 VGND VGND VPWR VPWR net162 sky130_fd_sc_hd__dlygate4sd3_1
Xhold10 net73 VGND VGND VPWR VPWR net140 sky130_fd_sc_hd__dlygate4sd3_1
Xhold21 _068_ VGND VGND VPWR VPWR net151 sky130_fd_sc_hd__dlygate4sd3_1
X_730_ net124 _342_ _086_ VGND VGND VPWR VPWR _343_ sky130_fd_sc_hd__mux2_1
X_661_ _267_ _272_ _266_ VGND VGND VPWR VPWR _281_ sky130_fd_sc_hd__o21a_1
X_592_ net108 _218_ _087_ VGND VGND VPWR VPWR _219_ sky130_fd_sc_hd__mux2_1
XFILLER_0_21_100 VGND VPWR VPWR VGND sky130_ef_sc_hd__decap_12
X_928_ clknet_3_2__leaf_clk _069_ VGND VGND VPWR VPWR cnt_act\[2\] sky130_fd_sc_hd__dfxtp_1
XFILLER_0_21_188 VGND VGND VPWR VPWR sky130_fd_sc_hd__fill_1
X_859_ clknet_3_3__leaf_clk _000_ VGND VGND VPWR VPWR estado_act\[0\] sky130_fd_sc_hd__dfxtp_1
XFILLER_0_16_97 VGND VPWR VPWR VGND sky130_ef_sc_hd__decap_12
XTAP_TAPCELL_ROW_29_180 VGND VPWR sky130_fd_sc_hd__tapvpwrvgnd_1
XFILLER_0_32_85 VGND VGND VPWR VPWR sky130_fd_sc_hd__fill_2
XFILLER_0_12_133 VGND VGND VPWR VPWR sky130_fd_sc_hd__decap_6
XFILLER_0_9_3 VGND VGND VPWR VPWR sky130_fd_sc_hd__fill_1
Xoutput77 net77 VGND VGND VPWR VPWR product[19] sky130_fd_sc_hd__buf_2
Xoutput88 net88 VGND VGND VPWR VPWR product[29] sky130_fd_sc_hd__clkbuf_4
Xoutput66 net66 VGND VGND VPWR VPWR done sky130_fd_sc_hd__clkbuf_4
Xoutput99 net99 VGND VGND VPWR VPWR product[39] sky130_fd_sc_hd__clkbuf_4
X_713_ net121 net20 VGND VGND VPWR VPWR _327_ sky130_fd_sc_hd__xnor2_1
X_575_ net106 _203_ _087_ VGND VGND VPWR VPWR _204_ sky130_fd_sc_hd__mux2_1
X_644_ net114 net13 VGND VGND VPWR VPWR _265_ sky130_fd_sc_hd__or2_1
XPHY_EDGE_ROW_15_Left_52 VGND VGND VPWR VPWR sky130_fd_sc_hd__decap_3
X_558_ _185_ _186_ _187_ VGND VGND VPWR VPWR _188_ sky130_fd_sc_hd__a21oi_1
X_627_ net112 net10 VGND VGND VPWR VPWR _250_ sky130_fd_sc_hd__nand2_1
X_489_ _124_ _125_ VGND VGND VPWR VPWR _126_ sky130_fd_sc_hd__and2_1
XPHY_EDGE_ROW_0_Left_37 VGND VGND VPWR VPWR sky130_fd_sc_hd__decap_3
XFILLER_0_4_85 VGND VGND VPWR VPWR sky130_fd_sc_hd__fill_1
X_892_ clknet_3_1__leaf_clk _033_ VGND VGND VPWR VPWR net126 sky130_fd_sc_hd__dfxtp_1
XFILLER_0_35_85 VGND VGND VPWR VPWR sky130_fd_sc_hd__decap_3
XFILLER_0_18_194 VGND VGND VPWR VPWR sky130_fd_sc_hd__fill_2
XPHY_EDGE_ROW_3_Left_40 VGND VGND VPWR VPWR sky130_fd_sc_hd__decap_3
X_875_ clknet_3_5__leaf_clk _016_ VGND VGND VPWR VPWR net107 sky130_fd_sc_hd__dfxtp_1
XFILLER_0_16_109 VGND VPWR VPWR VGND sky130_ef_sc_hd__decap_12
XFILLER_0_24_131 VGND VGND VPWR VPWR sky130_fd_sc_hd__decap_8
XFILLER_0_24_197 VGND VGND VPWR VPWR sky130_fd_sc_hd__fill_2
XFILLER_0_1_64 VGND VGND VPWR VPWR sky130_fd_sc_hd__fill_1
XFILLER_0_15_153 VGND VGND VPWR VPWR sky130_fd_sc_hd__fill_2
Xhold22 net82 VGND VGND VPWR VPWR net152 sky130_fd_sc_hd__dlygate4sd3_1
Xhold11 cnt_act\[0\] VGND VGND VPWR VPWR net141 sky130_fd_sc_hd__dlygate4sd3_1
Xhold33 net91 VGND VGND VPWR VPWR net163 sky130_fd_sc_hd__dlygate4sd3_1
Xhold44 net81 VGND VGND VPWR VPWR net174 sky130_fd_sc_hd__dlygate4sd3_1
X_660_ _277_ _279_ VGND VGND VPWR VPWR _280_ sky130_fd_sc_hd__nand2_1
X_591_ _216_ _217_ VGND VGND VPWR VPWR _218_ sky130_fd_sc_hd__and2_1
X_927_ clknet_3_3__leaf_clk net151 VGND VGND VPWR VPWR cnt_act\[1\] sky130_fd_sc_hd__dfxtp_1
X_858_ _080_ _083_ _088_ _074_ net132 VGND VGND VPWR VPWR _072_ sky130_fd_sc_hd__o311a_1
X_789_ net63 _388_ _378_ net181 _379_ VGND VGND VPWR VPWR _389_ sky130_fd_sc_hd__a221o_1
XFILLER_0_16_21 VGND VGND VPWR VPWR sky130_fd_sc_hd__decap_6
XFILLER_0_16_54 VGND VPWR VPWR VGND sky130_ef_sc_hd__decap_12
XTAP_TAPCELL_ROW_29_181 VGND VPWR sky130_fd_sc_hd__tapvpwrvgnd_1
XFILLER_0_12_101 VGND VGND VPWR VPWR sky130_fd_sc_hd__fill_1
XFILLER_0_12_145 VGND VGND VPWR VPWR sky130_fd_sc_hd__decap_3
XFILLER_0_32_3 VGND VPWR VPWR VGND sky130_ef_sc_hd__decap_12
X_712_ _326_ VGND VGND VPWR VPWR _028_ sky130_fd_sc_hd__clkbuf_1
Xoutput89 net89 VGND VGND VPWR VPWR product[2] sky130_fd_sc_hd__clkbuf_4
Xoutput78 net78 VGND VGND VPWR VPWR product[1] sky130_fd_sc_hd__clkbuf_4
Xoutput67 net67 VGND VGND VPWR VPWR product[0] sky130_fd_sc_hd__clkbuf_4
X_574_ _201_ _202_ VGND VGND VPWR VPWR _203_ sky130_fd_sc_hd__nor2_1
X_643_ net175 _101_ _263_ _264_ _098_ VGND VGND VPWR VPWR _021_ sky130_fd_sc_hd__o221a_1
XFILLER_0_17_215 VGND VGND VPWR VPWR sky130_fd_sc_hd__decap_3
XFILLER_0_4_197 VGND VPWR VPWR VGND sky130_ef_sc_hd__decap_12
XFILLER_0_7_85 VGND VPWR VPWR VGND sky130_ef_sc_hd__decap_12
XFILLER_0_13_33 VGND VPWR VPWR VGND sky130_ef_sc_hd__decap_12
X_557_ net104 net3 VGND VGND VPWR VPWR _187_ sky130_fd_sc_hd__xnor2_2
X_488_ net96 net27 VGND VGND VPWR VPWR _125_ sky130_fd_sc_hd__or2_1
X_626_ net110 _101_ _248_ _249_ _098_ VGND VGND VPWR VPWR _019_ sky130_fd_sc_hd__o221a_1
XFILLER_0_1_178 VGND VPWR VPWR VGND sky130_ef_sc_hd__decap_12
X_609_ _160_ _196_ _229_ _233_ VGND VGND VPWR VPWR _234_ sky130_fd_sc_hd__o31a_1
X_891_ clknet_3_6__leaf_clk _032_ VGND VGND VPWR VPWR net125 sky130_fd_sc_hd__dfxtp_1
XFILLER_0_36_162 VGND VGND VPWR VPWR sky130_fd_sc_hd__fill_2
XFILLER_0_36_195 VGND VGND VPWR VPWR sky130_fd_sc_hd__fill_1
XFILLER_0_10_67 VGND VGND VPWR VPWR sky130_fd_sc_hd__fill_2
XFILLER_0_10_78 VGND VGND VPWR VPWR sky130_fd_sc_hd__decap_6
X_874_ clknet_3_5__leaf_clk _015_ VGND VGND VPWR VPWR net106 sky130_fd_sc_hd__dfxtp_1
Xhold12 net89 VGND VGND VPWR VPWR net142 sky130_fd_sc_hd__dlygate4sd3_1
Xhold23 net122 VGND VGND VPWR VPWR net153 sky130_fd_sc_hd__dlygate4sd3_1
Xhold34 net126 VGND VGND VPWR VPWR net164 sky130_fd_sc_hd__dlygate4sd3_1
Xhold45 net113 VGND VGND VPWR VPWR net175 sky130_fd_sc_hd__dlygate4sd3_1
X_590_ _214_ _215_ VGND VGND VPWR VPWR _217_ sky130_fd_sc_hd__nand2_1
XFILLER_0_21_113 VGND VPWR VPWR VGND sky130_ef_sc_hd__decap_12
X_788_ _372_ VGND VGND VPWR VPWR _388_ sky130_fd_sc_hd__clkbuf_4
X_926_ clknet_3_3__leaf_clk _067_ VGND VGND VPWR VPWR cnt_act\[0\] sky130_fd_sc_hd__dfxtp_1
X_857_ net131 _427_ _428_ VGND VGND VPWR VPWR _071_ sky130_fd_sc_hd__a21oi_1
XFILLER_0_16_66 VGND VPWR VPWR VGND sky130_ef_sc_hd__decap_12
XFILLER_0_29_213 VGND VGND VPWR VPWR sky130_fd_sc_hd__fill_2
XFILLER_0_32_54 VGND VGND VPWR VPWR sky130_fd_sc_hd__decap_8
XFILLER_0_25_3 VGND VGND VPWR VPWR sky130_fd_sc_hd__decap_3
X_711_ _177_ _325_ VGND VGND VPWR VPWR _326_ sky130_fd_sc_hd__and2_1
Xoutput68 net68 VGND VGND VPWR VPWR product[10] sky130_fd_sc_hd__clkbuf_4
Xoutput79 net79 VGND VGND VPWR VPWR product[20] sky130_fd_sc_hd__clkbuf_4
X_642_ net114 _175_ _089_ VGND VGND VPWR VPWR _264_ sky130_fd_sc_hd__a21o_1
XPHY_EDGE_ROW_19_Right_19 VGND VGND VPWR VPWR sky130_fd_sc_hd__decap_3
X_573_ _200_ _195_ _197_ VGND VGND VPWR VPWR _202_ sky130_fd_sc_hd__and3_1
Xclkbuf_3_1__f_clk clknet_0_clk VGND VGND VPWR VPWR clknet_3_1__leaf_clk sky130_fd_sc_hd__clkbuf_16
XPHY_EDGE_ROW_28_Right_28 VGND VGND VPWR VPWR sky130_fd_sc_hd__decap_3
X_909_ clknet_3_0__leaf_clk _050_ VGND VGND VPWR VPWR net73 sky130_fd_sc_hd__dfxtp_1
XFILLER_0_27_54 VGND VGND VPWR VPWR sky130_fd_sc_hd__fill_2
XTAP_TAPCELL_ROW_9_109 VGND VPWR sky130_fd_sc_hd__tapvpwrvgnd_1
XFILLER_0_7_97 VGND VGND VPWR VPWR sky130_fd_sc_hd__fill_2
XFILLER_0_23_208 VGND VGND VPWR VPWR sky130_fd_sc_hd__decap_8
X_625_ net112 _175_ _089_ VGND VGND VPWR VPWR _249_ sky130_fd_sc_hd__a21o_1
XFILLER_0_13_45 VGND VGND VPWR VPWR sky130_fd_sc_hd__decap_8
X_556_ _178_ _180_ VGND VGND VPWR VPWR _186_ sky130_fd_sc_hd__or2b_1
X_487_ net96 net27 VGND VGND VPWR VPWR _124_ sky130_fd_sc_hd__nand2_1
XTAP_TAPCELL_ROW_20_147 VGND VPWR sky130_fd_sc_hd__tapvpwrvgnd_1
XFILLER_0_0_190 VGND VGND VPWR VPWR sky130_fd_sc_hd__decap_6
X_608_ _195_ _229_ _232_ VGND VGND VPWR VPWR _233_ sky130_fd_sc_hd__o21ba_1
X_539_ _169_ _170_ VGND VGND VPWR VPWR _171_ sky130_fd_sc_hd__nand2_1
X_890_ clknet_3_4__leaf_clk _031_ VGND VGND VPWR VPWR net124 sky130_fd_sc_hd__dfxtp_1
XFILLER_0_36_141 VGND VGND VPWR VPWR sky130_fd_sc_hd__fill_2
XFILLER_0_10_24 VGND VGND VPWR VPWR sky130_fd_sc_hd__decap_4
XFILLER_0_19_55 VGND VGND VPWR VPWR sky130_fd_sc_hd__fill_1
XFILLER_0_27_141 VGND VGND VPWR VPWR sky130_fd_sc_hd__fill_2
XFILLER_0_33_100 VGND VGND VPWR VPWR sky130_fd_sc_hd__decap_4
X_873_ clknet_3_5__leaf_clk _014_ VGND VGND VPWR VPWR net105 sky130_fd_sc_hd__dfxtp_2
XFILLER_0_1_55 VGND VGND VPWR VPWR sky130_fd_sc_hd__fill_1
XFILLER_0_15_166 VGND VGND VPWR VPWR sky130_fd_sc_hd__fill_2
Xhold24 net88 VGND VGND VPWR VPWR net154 sky130_fd_sc_hd__dlygate4sd3_1
Xhold35 net70 VGND VGND VPWR VPWR net165 sky130_fd_sc_hd__dlygate4sd3_1
Xhold13 cnt_act\[3\] VGND VGND VPWR VPWR net143 sky130_fd_sc_hd__dlygate4sd3_1
Xhold46 net104 VGND VGND VPWR VPWR net176 sky130_fd_sc_hd__dlygate4sd3_1
X_925_ clknet_3_2__leaf_clk _066_ VGND VGND VPWR VPWR net91 sky130_fd_sc_hd__dfxtp_1
XFILLER_0_21_125 VGND VPWR VPWR VGND sky130_ef_sc_hd__decap_12
XFILLER_0_21_158 VGND VGND VPWR VPWR sky130_fd_sc_hd__decap_3
XFILLER_0_21_169 VGND VGND VPWR VPWR sky130_fd_sc_hd__decap_6
X_787_ net172 _000_ _387_ VGND VGND VPWR VPWR _042_ sky130_fd_sc_hd__o21a_1
X_856_ net131 _427_ _074_ VGND VGND VPWR VPWR _428_ sky130_fd_sc_hd__o21ai_1
XFILLER_0_16_45 VGND VGND VPWR VPWR sky130_fd_sc_hd__decap_4
XFILLER_0_16_78 VGND VGND VPWR VPWR sky130_fd_sc_hd__fill_1
XFILLER_0_12_158 VGND VPWR VPWR VGND sky130_ef_sc_hd__decap_12
XFILLER_0_20_180 VGND VGND VPWR VPWR sky130_fd_sc_hd__fill_1
XFILLER_0_18_3 VGND VGND VPWR VPWR sky130_fd_sc_hd__decap_8
XFILLER_0_11_180 VGND VGND VPWR VPWR sky130_fd_sc_hd__decap_6
Xoutput69 net69 VGND VGND VPWR VPWR product[11] sky130_fd_sc_hd__clkbuf_4
X_710_ net120 _324_ _166_ VGND VGND VPWR VPWR _325_ sky130_fd_sc_hd__mux2_1
X_572_ _195_ _197_ _200_ VGND VGND VPWR VPWR _201_ sky130_fd_sc_hd__a21oi_1
X_641_ _260_ _261_ _262_ VGND VGND VPWR VPWR _263_ sky130_fd_sc_hd__a21oi_1
X_908_ clknet_3_0__leaf_clk net156 VGND VGND VPWR VPWR net72 sky130_fd_sc_hd__dfxtp_1
X_839_ net154 _078_ _417_ VGND VGND VPWR VPWR _064_ sky130_fd_sc_hd__o21a_1
XFILLER_0_27_99 VGND VPWR VPWR VGND sky130_ef_sc_hd__decap_12
XTAP_TAPCELL_ROW_32_189 VGND VPWR sky130_fd_sc_hd__tapvpwrvgnd_1
XFILLER_0_32_209 VGND VGND VPWR VPWR sky130_fd_sc_hd__decap_4
XFILLER_0_7_65 VGND VGND VPWR VPWR sky130_fd_sc_hd__decap_4
XFILLER_0_7_3 VGND VGND VPWR VPWR sky130_fd_sc_hd__decap_4
X_555_ net103 net2 VGND VGND VPWR VPWR _185_ sky130_fd_sc_hd__nand2_1
X_624_ _095_ _247_ VGND VGND VPWR VPWR _248_ sky130_fd_sc_hd__nor2_1
XFILLER_0_13_57 VGND VGND VPWR VPWR sky130_fd_sc_hd__decap_8
X_486_ net95 _101_ _102_ _123_ VGND VGND VPWR VPWR _005_ sky130_fd_sc_hd__o211a_1
XPHY_EDGE_ROW_19_Left_56 VGND VGND VPWR VPWR sky130_fd_sc_hd__decap_3
XTAP_TAPCELL_ROW_20_148 VGND VPWR sky130_fd_sc_hd__tapvpwrvgnd_1
XFILLER_0_24_12 VGND VPWR VPWR VGND sky130_ef_sc_hd__decap_12
X_538_ net102 net32 VGND VGND VPWR VPWR _170_ sky130_fd_sc_hd__or2_1
X_607_ net108 net7 _228_ _230_ _231_ VGND VGND VPWR VPWR _232_ sky130_fd_sc_hd__a221o_1
X_469_ net93 _101_ _102_ _108_ VGND VGND VPWR VPWR _003_ sky130_fd_sc_hd__o211a_1
XFILLER_0_36_197 VGND VGND VPWR VPWR sky130_fd_sc_hd__fill_2
XFILLER_0_19_45 VGND VGND VPWR VPWR sky130_fd_sc_hd__fill_1
XFILLER_0_19_89 VGND VGND VPWR VPWR sky130_fd_sc_hd__decap_3
XFILLER_0_35_33 VGND VGND VPWR VPWR sky130_fd_sc_hd__fill_1
XFILLER_0_35_77 VGND VGND VPWR VPWR sky130_fd_sc_hd__decap_8
XFILLER_0_18_197 VGND VGND VPWR VPWR sky130_fd_sc_hd__decap_4
X_872_ clknet_3_4__leaf_clk _013_ VGND VGND VPWR VPWR net104 sky130_fd_sc_hd__dfxtp_2
XFILLER_0_21_57 VGND VGND VPWR VPWR sky130_fd_sc_hd__decap_4
XFILLER_0_24_145 VGND VGND VPWR VPWR sky130_fd_sc_hd__fill_1
XFILLER_0_1_23 VGND VGND VPWR VPWR sky130_fd_sc_hd__fill_1
XFILLER_0_15_123 VGND VGND VPWR VPWR sky130_fd_sc_hd__fill_2
Xhold25 net72 VGND VGND VPWR VPWR net155 sky130_fd_sc_hd__dlygate4sd3_1
Xhold36 net67 VGND VGND VPWR VPWR net166 sky130_fd_sc_hd__dlygate4sd3_1
Xhold14 net84 VGND VGND VPWR VPWR net144 sky130_fd_sc_hd__dlygate4sd3_1
Xhold47 net99 VGND VGND VPWR VPWR net177 sky130_fd_sc_hd__dlygate4sd3_1
XPHY_EDGE_ROW_7_Left_44 VGND VGND VPWR VPWR sky130_fd_sc_hd__decap_3
XFILLER_0_21_137 VGND VPWR VPWR VGND sky130_ef_sc_hd__decap_12
X_924_ clknet_3_2__leaf_clk _065_ VGND VGND VPWR VPWR net90 sky130_fd_sc_hd__dfxtp_1
X_786_ net62 _373_ _378_ net135 _379_ VGND VGND VPWR VPWR _387_ sky130_fd_sc_hd__a221o_1
X_855_ net65 _426_ _427_ VGND VGND VPWR VPWR _070_ sky130_fd_sc_hd__nor3_1
XFILLER_0_8_109 VGND VGND VPWR VPWR sky130_fd_sc_hd__decap_4
XFILLER_0_7_164 VGND VGND VPWR VPWR sky130_fd_sc_hd__decap_4
XPHY_EDGE_ROW_1_Right_1 VGND VGND VPWR VPWR sky130_fd_sc_hd__decap_3
X_571_ _198_ _199_ VGND VGND VPWR VPWR _200_ sky130_fd_sc_hd__nand2_1
X_640_ _260_ _261_ _088_ VGND VGND VPWR VPWR _262_ sky130_fd_sc_hd__o21ai_1