* NGSPICE file created from mult_sec_16.ext - technology: sky130A

* Black-box entry subcircuit for sky130_fd_sc_hd__tapvpwrvgnd_1 abstract view
.subckt sky130_fd_sc_hd__tapvpwrvgnd_1 VGND VPWR
.ends

* Black-box entry subcircuit for sky130_fd_sc_hd__fill_1 abstract view
.subckt sky130_fd_sc_hd__fill_1 VGND VNB VPB VPWR
.ends

* Black-box entry subcircuit for sky130_fd_sc_hd__fill_2 abstract view
.subckt sky130_fd_sc_hd__fill_2 VGND VNB VPB VPWR
.ends

* Black-box entry subcircuit for sky130_fd_sc_hd__dfxtp_1 abstract view
.subckt sky130_fd_sc_hd__dfxtp_1 CLK D VGND VNB VPB VPWR Q
.ends

* Black-box entry subcircuit for sky130_fd_sc_hd__clkbuf_1 abstract view
.subckt sky130_fd_sc_hd__clkbuf_1 A VGND VNB VPB VPWR X
.ends

* Black-box entry subcircuit for sky130_fd_sc_hd__nor2_1 abstract view
.subckt sky130_fd_sc_hd__nor2_1 A B VGND VNB VPB VPWR Y
.ends

* Black-box entry subcircuit for sky130_fd_sc_hd__decap_3 abstract view
.subckt sky130_fd_sc_hd__decap_3 VGND VNB VPB VPWR
.ends

* Black-box entry subcircuit for sky130_fd_sc_hd__xor2_1 abstract view
.subckt sky130_fd_sc_hd__xor2_1 A B VGND VNB VPB VPWR X
.ends

* Black-box entry subcircuit for sky130_fd_sc_hd__decap_4 abstract view
.subckt sky130_fd_sc_hd__decap_4 VGND VNB VPB VPWR
.ends

* Black-box entry subcircuit for sky130_fd_sc_hd__a32o_1 abstract view
.subckt sky130_fd_sc_hd__a32o_1 A1 A2 A3 B1 B2 VGND VNB VPB VPWR X
.ends

* Black-box entry subcircuit for sky130_fd_sc_hd__or2_1 abstract view
.subckt sky130_fd_sc_hd__or2_1 A B VGND VNB VPB VPWR X
.ends

* Black-box entry subcircuit for sky130_fd_sc_hd__and2_1 abstract view
.subckt sky130_fd_sc_hd__and2_1 A B VGND VNB VPB VPWR X
.ends

* Black-box entry subcircuit for sky130_fd_sc_hd__clkbuf_4 abstract view
.subckt sky130_fd_sc_hd__clkbuf_4 A VGND VNB VPB VPWR X
.ends

* Black-box entry subcircuit for sky130_fd_sc_hd__mux2_1 abstract view
.subckt sky130_fd_sc_hd__mux2_1 A0 A1 S VGND VNB VPB VPWR X
.ends

* Black-box entry subcircuit for sky130_fd_sc_hd__or3b_1 abstract view
.subckt sky130_fd_sc_hd__or3b_1 A B C_N VGND VNB VPB VPWR X
.ends

* Black-box entry subcircuit for sky130_fd_sc_hd__dlygate4sd3_1 abstract view
.subckt sky130_fd_sc_hd__dlygate4sd3_1 A VGND VNB VPB VPWR X
.ends

* Black-box entry subcircuit for sky130_ef_sc_hd__decap_12 abstract view
.subckt sky130_ef_sc_hd__decap_12 VGND VPWR VPB VNB
.ends

* Black-box entry subcircuit for sky130_fd_sc_hd__buf_2 abstract view
.subckt sky130_fd_sc_hd__buf_2 A VGND VNB VPB VPWR X
.ends

* Black-box entry subcircuit for sky130_fd_sc_hd__a21oi_1 abstract view
.subckt sky130_fd_sc_hd__a21oi_1 A1 A2 B1 VGND VNB VPB VPWR Y
.ends

* Black-box entry subcircuit for sky130_fd_sc_hd__decap_8 abstract view
.subckt sky130_fd_sc_hd__decap_8 VGND VNB VPB VPWR
.ends

* Black-box entry subcircuit for sky130_fd_sc_hd__dfxtp_2 abstract view
.subckt sky130_fd_sc_hd__dfxtp_2 CLK D VGND VNB VPB VPWR Q
.ends

* Black-box entry subcircuit for sky130_fd_sc_hd__nand2_1 abstract view
.subckt sky130_fd_sc_hd__nand2_1 A B VGND VNB VPB VPWR Y
.ends

* Black-box entry subcircuit for sky130_fd_sc_hd__decap_6 abstract view
.subckt sky130_fd_sc_hd__decap_6 VGND VNB VPB VPWR
.ends

* Black-box entry subcircuit for sky130_fd_sc_hd__a22o_1 abstract view
.subckt sky130_fd_sc_hd__a22o_1 A1 A2 B1 B2 VGND VNB VPB VPWR X
.ends

* Black-box entry subcircuit for sky130_fd_sc_hd__o21ai_2 abstract view
.subckt sky130_fd_sc_hd__o21ai_2 A1 A2 B1 VGND VNB VPB VPWR Y
.ends

* Black-box entry subcircuit for sky130_fd_sc_hd__a31o_1 abstract view
.subckt sky130_fd_sc_hd__a31o_1 A1 A2 A3 B1 VGND VNB VPB VPWR X
.ends

* Black-box entry subcircuit for sky130_fd_sc_hd__o21a_1 abstract view
.subckt sky130_fd_sc_hd__o21a_1 A1 A2 B1 VGND VNB VPB VPWR X
.ends

* Black-box entry subcircuit for sky130_fd_sc_hd__a21o_1 abstract view
.subckt sky130_fd_sc_hd__a21o_1 A1 A2 B1 VGND VNB VPB VPWR X
.ends

* Black-box entry subcircuit for sky130_fd_sc_hd__nand2_2 abstract view
.subckt sky130_fd_sc_hd__nand2_2 A B VGND VNB VPB VPWR Y
.ends

* Black-box entry subcircuit for sky130_fd_sc_hd__and2b_1 abstract view
.subckt sky130_fd_sc_hd__and2b_1 A_N B VGND VNB VPB VPWR X
.ends

* Black-box entry subcircuit for sky130_fd_sc_hd__o211a_1 abstract view
.subckt sky130_fd_sc_hd__o211a_1 A1 A2 B1 C1 VGND VNB VPB VPWR X
.ends

* Black-box entry subcircuit for sky130_fd_sc_hd__inv_2 abstract view
.subckt sky130_fd_sc_hd__inv_2 A VGND VNB VPB VPWR Y
.ends

* Black-box entry subcircuit for sky130_fd_sc_hd__a221o_1 abstract view
.subckt sky130_fd_sc_hd__a221o_1 A1 A2 B1 B2 C1 VGND VNB VPB VPWR X
.ends

* Black-box entry subcircuit for sky130_fd_sc_hd__nor3_1 abstract view
.subckt sky130_fd_sc_hd__nor3_1 A B C VGND VNB VPB VPWR Y
.ends

* Black-box entry subcircuit for sky130_fd_sc_hd__o221a_1 abstract view
.subckt sky130_fd_sc_hd__o221a_1 A1 A2 B1 B2 C1 VGND VNB VPB VPWR X
.ends

* Black-box entry subcircuit for sky130_fd_sc_hd__clkbuf_16 abstract view
.subckt sky130_fd_sc_hd__clkbuf_16 A VGND VNB VPB VPWR X
.ends

* Black-box entry subcircuit for sky130_fd_sc_hd__and3_1 abstract view
.subckt sky130_fd_sc_hd__and3_1 A B C VGND VNB VPB VPWR X
.ends

* Black-box entry subcircuit for sky130_fd_sc_hd__or2b_1 abstract view
.subckt sky130_fd_sc_hd__or2b_1 A B_N VGND VNB VPB VPWR X
.ends

* Black-box entry subcircuit for sky130_fd_sc_hd__nor2_2 abstract view
.subckt sky130_fd_sc_hd__nor2_2 A B VGND VNB VPB VPWR Y
.ends

* Black-box entry subcircuit for sky130_fd_sc_hd__o221a_2 abstract view
.subckt sky130_fd_sc_hd__o221a_2 A1 A2 B1 B2 C1 VGND VNB VPB VPWR X
.ends

* Black-box entry subcircuit for sky130_fd_sc_hd__buf_1 abstract view
.subckt sky130_fd_sc_hd__buf_1 A VGND VNB VPB VPWR X
.ends

* Black-box entry subcircuit for sky130_fd_sc_hd__buf_4 abstract view
.subckt sky130_fd_sc_hd__buf_4 A VGND VNB VPB VPWR X
.ends

* Black-box entry subcircuit for sky130_fd_sc_hd__o22a_1 abstract view
.subckt sky130_fd_sc_hd__o22a_1 A1 A2 B1 B2 VGND VNB VPB VPWR X
.ends

* Black-box entry subcircuit for sky130_fd_sc_hd__dlymetal6s2s_1 abstract view
.subckt sky130_fd_sc_hd__dlymetal6s2s_1 A VGND VNB VPB VPWR X
.ends

* Black-box entry subcircuit for sky130_fd_sc_hd__o2bb2a_1 abstract view
.subckt sky130_fd_sc_hd__o2bb2a_1 A1_N A2_N B1 B2 VGND VNB VPB VPWR X
.ends

* Black-box entry subcircuit for sky130_fd_sc_hd__nor2_4 abstract view
.subckt sky130_fd_sc_hd__nor2_4 A B VGND VNB VPB VPWR Y
.ends

* Black-box entry subcircuit for sky130_fd_sc_hd__a2bb2o_1 abstract view
.subckt sky130_fd_sc_hd__a2bb2o_1 A1_N A2_N B1 B2 VGND VNB VPB VPWR X
.ends

* Black-box entry subcircuit for sky130_fd_sc_hd__or4bb_1 abstract view
.subckt sky130_fd_sc_hd__or4bb_1 A B C_N D_N VGND VNB VPB VPWR X
.ends

* Black-box entry subcircuit for sky130_fd_sc_hd__xnor2_1 abstract view
.subckt sky130_fd_sc_hd__xnor2_1 A B VGND VNB VPB VPWR Y
.ends

* Black-box entry subcircuit for sky130_fd_sc_hd__a41o_1 abstract view
.subckt sky130_fd_sc_hd__a41o_1 A1 A2 A3 A4 B1 VGND VNB VPB VPWR X
.ends

* Black-box entry subcircuit for sky130_fd_sc_hd__a21bo_1 abstract view
.subckt sky130_fd_sc_hd__a21bo_1 A1 A2 B1_N VGND VNB VPB VPWR X
.ends

* Black-box entry subcircuit for sky130_fd_sc_hd__o21ai_1 abstract view
.subckt sky130_fd_sc_hd__o21ai_1 A1 A2 B1 VGND VNB VPB VPWR Y
.ends

* Black-box entry subcircuit for sky130_fd_sc_hd__a21boi_1 abstract view
.subckt sky130_fd_sc_hd__a21boi_1 A1 A2 B1_N VGND VNB VPB VPWR Y
.ends

* Black-box entry subcircuit for sky130_fd_sc_hd__and4b_1 abstract view
.subckt sky130_fd_sc_hd__and4b_1 A_N B C D VGND VNB VPB VPWR X
.ends

* Black-box entry subcircuit for sky130_fd_sc_hd__clkbuf_2 abstract view
.subckt sky130_fd_sc_hd__clkbuf_2 A VGND VNB VPB VPWR X
.ends

* Black-box entry subcircuit for sky130_fd_sc_hd__nand2_4 abstract view
.subckt sky130_fd_sc_hd__nand2_4 A B VGND VNB VPB VPWR Y
.ends

* Black-box entry subcircuit for sky130_fd_sc_hd__xor2_2 abstract view
.subckt sky130_fd_sc_hd__xor2_2 A B VGND VNB VPB VPWR X
.ends

* Black-box entry subcircuit for sky130_fd_sc_hd__o211ai_1 abstract view
.subckt sky130_fd_sc_hd__o211ai_1 A1 A2 B1 C1 VGND VNB VPB VPWR Y
.ends

* Black-box entry subcircuit for sky130_fd_sc_hd__a211o_1 abstract view
.subckt sky130_fd_sc_hd__a211o_1 A1 A2 B1 C1 VGND VNB VPB VPWR X
.ends

* Black-box entry subcircuit for sky130_fd_sc_hd__or2_4 abstract view
.subckt sky130_fd_sc_hd__or2_4 A B VGND VNB VPB VPWR X
.ends

* Black-box entry subcircuit for sky130_fd_sc_hd__or3_1 abstract view
.subckt sky130_fd_sc_hd__or3_1 A B C VGND VNB VPB VPWR X
.ends

.subckt mult_sec_16 VGND VPWR clk done mcand[0] mcand[10] mcand[11] mcand[12] mcand[13]
+ mcand[14] mcand[15] mcand[1] mcand[2] mcand[3] mcand[4] mcand[5] mcand[6] mcand[7]
+ mcand[8] mcand[9] mplier[0] mplier[10] mplier[11] mplier[12] mplier[13] mplier[14]
+ mplier[15] mplier[1] mplier[2] mplier[3] mplier[4] mplier[5] mplier[6] mplier[7]
+ mplier[8] mplier[9] product[0] product[10] product[11] product[12] product[13] product[14]
+ product[15] product[16] product[17] product[18] product[19] product[1] product[20]
+ product[21] product[22] product[23] product[24] product[25] product[26] product[27]
+ product[28] product[29] product[2] product[30] product[31] product[3] product[4]
+ product[5] product[6] product[7] product[8] product[9] st
XTAP_TAPCELL_ROW_24_117 VGND VPWR sky130_fd_sc_hd__tapvpwrvgnd_1
XFILLER_0_7_70 VGND VGND VPWR VPWR sky130_fd_sc_hd__fill_1
XFILLER_0_7_92 VGND VGND VPWR VPWR sky130_fd_sc_hd__fill_2
X_501_ clknet_2_3__leaf_clk _022_ VGND VGND VPWR VPWR net60 sky130_fd_sc_hd__dfxtp_1
X_432_ _208_ VGND VGND VPWR VPWR _023_ sky130_fd_sc_hd__clkbuf_1
X_294_ net47 net11 VGND VGND VPWR VPWR _088_ sky130_fd_sc_hd__nor2_1
XPHY_EDGE_ROW_21_Left_48 VGND VGND VPWR VPWR sky130_fd_sc_hd__decap_3
X_363_ net54 net3 VGND VGND VPWR VPWR _150_ sky130_fd_sc_hd__xor2_1
XTAP_TAPCELL_ROW_21_109 VGND VPWR sky130_fd_sc_hd__tapvpwrvgnd_1
XTAP_TAPCELL_ROW_12_87 VGND VPWR sky130_fd_sc_hd__tapvpwrvgnd_1
X_346_ net52 net16 VGND VGND VPWR VPWR _135_ sky130_fd_sc_hd__xor2_1
XFILLER_0_18_29 VGND VGND VPWR VPWR sky130_fd_sc_hd__decap_4
X_415_ _050_ _189_ _196_ _045_ acu_act\[32\] VGND VGND VPWR VPWR _197_ sky130_fd_sc_hd__a32o_1
XTAP_TAPCELL_ROW_8_77 VGND VPWR sky130_fd_sc_hd__tapvpwrvgnd_1
X_277_ _069_ _072_ VGND VGND VPWR VPWR _073_ sky130_fd_sc_hd__or2_1
XPHY_EDGE_ROW_24_Left_51 VGND VGND VPWR VPWR sky130_fd_sc_hd__decap_3
X_329_ _061_ _119_ VGND VGND VPWR VPWR _120_ sky130_fd_sc_hd__and2_1
XFILLER_0_21_62 VGND VGND VPWR VPWR sky130_fd_sc_hd__decap_3
XFILLER_0_16_139 VGND VGND VPWR VPWR sky130_fd_sc_hd__fill_1
XFILLER_0_26_29 VGND VGND VPWR VPWR sky130_fd_sc_hd__fill_2
XFILLER_0_1_61 VGND VGND VPWR VPWR sky130_fd_sc_hd__fill_1
XFILLER_0_20_9 VGND VGND VPWR VPWR sky130_fd_sc_hd__decap_4
XFILLER_0_8_125 VGND VGND VPWR VPWR sky130_fd_sc_hd__fill_1
Xoutput53 net53 VGND VGND VPWR VPWR product[26] sky130_fd_sc_hd__clkbuf_4
Xoutput42 net42 VGND VGND VPWR VPWR product[16] sky130_fd_sc_hd__clkbuf_4
Xoutput64 net64 VGND VGND VPWR VPWR product[7] sky130_fd_sc_hd__clkbuf_4
XTAP_TAPCELL_ROW_24_118 VGND VPWR sky130_fd_sc_hd__tapvpwrvgnd_1
X_431_ net79 _207_ _000_ VGND VGND VPWR VPWR _208_ sky130_fd_sc_hd__mux2_1
X_362_ _149_ VGND VGND VPWR VPWR _012_ sky130_fd_sc_hd__clkbuf_1
X_293_ net47 net11 VGND VGND VPWR VPWR _087_ sky130_fd_sc_hd__and2_1
X_500_ clknet_2_0__leaf_clk _021_ VGND VGND VPWR VPWR net57 sky130_fd_sc_hd__dfxtp_1
XTAP_TAPCELL_ROW_12_88 VGND VPWR sky130_fd_sc_hd__tapvpwrvgnd_1
XTAP_TAPCELL_ROW_8_78 VGND VPWR sky130_fd_sc_hd__tapvpwrvgnd_1
X_345_ _134_ VGND VGND VPWR VPWR _010_ sky130_fd_sc_hd__clkbuf_1
X_414_ _180_ _183_ _190_ VGND VGND VPWR VPWR _196_ sky130_fd_sc_hd__or3b_1
X_276_ _070_ _071_ VGND VGND VPWR VPWR _072_ sky130_fd_sc_hd__nor2_1
XPHY_EDGE_ROW_21_Right_21 VGND VGND VPWR VPWR sky130_fd_sc_hd__decap_3
XPHY_EDGE_ROW_12_Right_12 VGND VGND VPWR VPWR sky130_fd_sc_hd__decap_3
X_259_ _056_ VGND VGND VPWR VPWR _057_ sky130_fd_sc_hd__clkbuf_4
X_328_ net50 _118_ _057_ VGND VGND VPWR VPWR _119_ sky130_fd_sc_hd__mux2_1
XFILLER_0_19_104 VGND VGND VPWR VPWR sky130_fd_sc_hd__fill_2
Xhold20 net35 VGND VGND VPWR VPWR net86 sky130_fd_sc_hd__dlygate4sd3_1
XFILLER_0_21_143 VGND VPWR VPWR VGND sky130_ef_sc_hd__decap_12
XPHY_EDGE_ROW_6_Right_6 VGND VGND VPWR VPWR sky130_fd_sc_hd__decap_3
XFILLER_0_8_159 VGND VGND VPWR VPWR sky130_fd_sc_hd__fill_1
Xoutput43 net43 VGND VGND VPWR VPWR product[17] sky130_fd_sc_hd__clkbuf_4
Xoutput54 net54 VGND VGND VPWR VPWR product[27] sky130_fd_sc_hd__buf_2
Xoutput65 net65 VGND VGND VPWR VPWR product[8] sky130_fd_sc_hd__clkbuf_4
X_430_ net62 net27 _177_ VGND VGND VPWR VPWR _207_ sky130_fd_sc_hd__mux2_1
X_361_ _060_ _148_ VGND VGND VPWR VPWR _149_ sky130_fd_sc_hd__and2_1
X_292_ _086_ VGND VGND VPWR VPWR _005_ sky130_fd_sc_hd__clkbuf_1
X_344_ _061_ _133_ VGND VGND VPWR VPWR _134_ sky130_fd_sc_hd__and2_1
X_275_ net44 net9 VGND VGND VPWR VPWR _071_ sky130_fd_sc_hd__and2_1
X_413_ _194_ _195_ _177_ VGND VGND VPWR VPWR _017_ sky130_fd_sc_hd__a21oi_1
XFILLER_0_24_85 VGND VGND VPWR VPWR sky130_fd_sc_hd__decap_8
XFILLER_0_24_74 VGND VGND VPWR VPWR sky130_fd_sc_hd__fill_1
XFILLER_0_19_149 VGND VGND VPWR VPWR sky130_fd_sc_hd__decap_4
XFILLER_0_19_96 VGND VGND VPWR VPWR sky130_fd_sc_hd__decap_8
XFILLER_0_19_74 VGND VPWR VPWR VGND sky130_ef_sc_hd__decap_12
X_327_ net51 _117_ _050_ VGND VGND VPWR VPWR _118_ sky130_fd_sc_hd__mux2_1
X_258_ _055_ VGND VGND VPWR VPWR _056_ sky130_fd_sc_hd__buf_2
XTAP_TAPCELL_ROW_5_69 VGND VPWR sky130_fd_sc_hd__tapvpwrvgnd_1
XFILLER_0_24_141 VGND VGND VPWR VPWR sky130_fd_sc_hd__decap_8
XFILLER_0_21_53 VGND VGND VPWR VPWR sky130_fd_sc_hd__decap_3
XFILLER_0_16_108 VGND VPWR VPWR VGND sky130_ef_sc_hd__decap_12
XFILLER_0_21_155 VGND VGND VPWR VPWR sky130_fd_sc_hd__decap_4
XFILLER_0_21_122 VGND VGND VPWR VPWR sky130_fd_sc_hd__fill_1
XFILLER_0_21_111 VGND VGND VPWR VPWR sky130_fd_sc_hd__fill_1
Xhold21 net42 VGND VGND VPWR VPWR net87 sky130_fd_sc_hd__dlygate4sd3_1
Xhold10 net40 VGND VGND VPWR VPWR net76 sky130_fd_sc_hd__dlygate4sd3_1
XFILLER_0_12_155 VGND VGND VPWR VPWR sky130_fd_sc_hd__fill_1
Xoutput66 net66 VGND VGND VPWR VPWR product[9] sky130_fd_sc_hd__clkbuf_4
Xoutput44 net44 VGND VGND VPWR VPWR product[18] sky130_fd_sc_hd__clkbuf_4
Xoutput55 net55 VGND VGND VPWR VPWR product[28] sky130_fd_sc_hd__clkbuf_4
XFILLER_0_9_3 VGND VGND VPWR VPWR sky130_fd_sc_hd__decap_3
X_360_ net53 _147_ _056_ VGND VGND VPWR VPWR _148_ sky130_fd_sc_hd__mux2_1
XFILLER_0_7_62 VGND VGND VPWR VPWR sky130_fd_sc_hd__decap_8
X_291_ _061_ _085_ VGND VGND VPWR VPWR _086_ sky130_fd_sc_hd__and2_1
X_489_ clknet_2_3__leaf_clk _010_ VGND VGND VPWR VPWR net51 sky130_fd_sc_hd__dfxtp_2
XFILLER_0_13_98 VGND VPWR VPWR VGND sky130_ef_sc_hd__decap_12
XFILLER_0_13_65 VGND VGND VPWR VPWR sky130_fd_sc_hd__decap_4
X_343_ net51 _132_ _056_ VGND VGND VPWR VPWR _133_ sky130_fd_sc_hd__mux2_1
X_274_ net44 net9 VGND VGND VPWR VPWR _070_ sky130_fd_sc_hd__nor2_1
X_412_ net72 _045_ VGND VGND VPWR VPWR _195_ sky130_fd_sc_hd__nand2_1
XFILLER_0_24_53 VGND VGND VPWR VPWR sky130_fd_sc_hd__fill_1
XFILLER_0_4_74 VGND VGND VPWR VPWR sky130_fd_sc_hd__fill_1
XFILLER_0_4_85 VGND VPWR VPWR VGND sky130_ef_sc_hd__decap_12
XFILLER_0_19_86 VGND VGND VPWR VPWR sky130_fd_sc_hd__decap_3
XFILLER_0_19_31 VGND VGND VPWR VPWR sky130_fd_sc_hd__decap_8
X_326_ _113_ _116_ VGND VGND VPWR VPWR _117_ sky130_fd_sc_hd__xor2_1
X_257_ _040_ _041_ VGND VGND VPWR VPWR _055_ sky130_fd_sc_hd__and2_1
XFILLER_0_19_128 VGND VPWR VPWR VGND sky130_ef_sc_hd__decap_12
X_309_ _100_ _101_ VGND VGND VPWR VPWR _102_ sky130_fd_sc_hd__xor2_1
XPHY_EDGE_ROW_12_Left_39 VGND VGND VPWR VPWR sky130_fd_sc_hd__decap_3
XFILLER_0_15_131 VGND VGND VPWR VPWR sky130_fd_sc_hd__decap_8
Xhold22 net38 VGND VGND VPWR VPWR net88 sky130_fd_sc_hd__dlygate4sd3_1
Xhold11 net37 VGND VGND VPWR VPWR net77 sky130_fd_sc_hd__dlygate4sd3_1
XFILLER_0_16_76 VGND VGND VPWR VPWR sky130_fd_sc_hd__decap_8
XFILLER_0_16_65 VGND VGND VPWR VPWR sky130_fd_sc_hd__decap_3
XFILLER_0_16_43 VGND VGND VPWR VPWR sky130_fd_sc_hd__fill_1
XFILLER_0_16_21 VGND VGND VPWR VPWR sky130_fd_sc_hd__decap_6
XFILLER_0_12_101 VGND VGND VPWR VPWR sky130_fd_sc_hd__fill_2
XFILLER_0_8_139 VGND VGND VPWR VPWR sky130_fd_sc_hd__fill_1
Xoutput45 net45 VGND VGND VPWR VPWR product[19] sky130_fd_sc_hd__clkbuf_4
Xoutput34 net34 VGND VGND VPWR VPWR done sky130_fd_sc_hd__clkbuf_4
Xoutput56 net56 VGND VGND VPWR VPWR product[29] sky130_fd_sc_hd__clkbuf_4
XPHY_EDGE_ROW_15_Left_42 VGND VGND VPWR VPWR sky130_fd_sc_hd__decap_3
XFILLER_0_7_74 VGND VGND VPWR VPWR sky130_fd_sc_hd__decap_4
X_488_ clknet_2_2__leaf_clk _009_ VGND VGND VPWR VPWR net50 sky130_fd_sc_hd__dfxtp_1
X_290_ net45 _084_ _057_ VGND VGND VPWR VPWR _085_ sky130_fd_sc_hd__mux2_1
X_342_ net52 _054_ _129_ _131_ VGND VGND VPWR VPWR _132_ sky130_fd_sc_hd__a22o_1
X_273_ _048_ _068_ _062_ VGND VGND VPWR VPWR _069_ sky130_fd_sc_hd__o21ai_2
XPHY_EDGE_ROW_0_Left_27 VGND VGND VPWR VPWR sky130_fd_sc_hd__decap_3
X_411_ _050_ _191_ _192_ _193_ VGND VGND VPWR VPWR _194_ sky130_fd_sc_hd__a31o_1
XTAP_TAPCELL_ROW_13_90 VGND VPWR sky130_fd_sc_hd__tapvpwrvgnd_1
XFILLER_0_4_53 VGND VGND VPWR VPWR sky130_fd_sc_hd__decap_6
XFILLER_0_4_97 VGND VPWR VPWR VGND sky130_ef_sc_hd__decap_12
X_325_ _114_ _106_ _115_ VGND VGND VPWR VPWR _116_ sky130_fd_sc_hd__o21a_1
X_256_ _053_ VGND VGND VPWR VPWR _054_ sky130_fd_sc_hd__clkbuf_4
XFILLER_0_10_45 VGND VGND VPWR VPWR sky130_fd_sc_hd__fill_1
XTAP_TAPCELL_ROW_9_80 VGND VPWR sky130_fd_sc_hd__tapvpwrvgnd_1
XPHY_EDGE_ROW_3_Left_30 VGND VGND VPWR VPWR sky130_fd_sc_hd__decap_3
XFILLER_0_24_121 VGND VPWR VPWR VGND sky130_ef_sc_hd__decap_12
XFILLER_0_21_99 VGND VPWR VPWR VGND sky130_ef_sc_hd__decap_12
X_308_ _089_ _092_ _087_ VGND VGND VPWR VPWR _101_ sky130_fd_sc_hd__a21o_1
XFILLER_0_21_33 VGND VPWR VPWR VGND sky130_ef_sc_hd__decap_12
X_239_ estado_act\[0\] estado_act\[1\] VGND VGND VPWR VPWR _040_ sky130_fd_sc_hd__nand2_2
XFILLER_0_15_121 VGND VGND VPWR VPWR sky130_fd_sc_hd__decap_3
Xhold12 net64 VGND VGND VPWR VPWR net78 sky130_fd_sc_hd__dlygate4sd3_1
XFILLER_0_21_113 VGND VGND VPWR VPWR sky130_fd_sc_hd__decap_3
XFILLER_0_12_135 VGND VGND VPWR VPWR sky130_fd_sc_hd__decap_4
Xoutput57 net57 VGND VGND VPWR VPWR product[2] sky130_fd_sc_hd__clkbuf_4
Xoutput35 net35 VGND VGND VPWR VPWR product[0] sky130_fd_sc_hd__clkbuf_4
Xoutput46 net46 VGND VGND VPWR VPWR product[1] sky130_fd_sc_hd__clkbuf_4
XPHY_EDGE_ROW_19_Right_19 VGND VGND VPWR VPWR sky130_fd_sc_hd__decap_3
X_487_ clknet_2_2__leaf_clk _008_ VGND VGND VPWR VPWR net49 sky130_fd_sc_hd__dfxtp_2
XFILLER_0_1_113 VGND VGND VPWR VPWR sky130_fd_sc_hd__decap_4
X_341_ _053_ _130_ VGND VGND VPWR VPWR _131_ sky130_fd_sc_hd__nor2_1
X_410_ acu_act\[32\] _057_ _050_ VGND VGND VPWR VPWR _193_ sky130_fd_sc_hd__a21oi_1
X_272_ net43 net8 VGND VGND VPWR VPWR _068_ sky130_fd_sc_hd__nor2_1
X_324_ net49 net13 VGND VGND VPWR VPWR _115_ sky130_fd_sc_hd__nand2_1
X_255_ _052_ VGND VGND VPWR VPWR _053_ sky130_fd_sc_hd__buf_2
XFILLER_0_19_55 VGND VGND VPWR VPWR sky130_fd_sc_hd__fill_1
XFILLER_0_24_133 VGND VGND VPWR VPWR sky130_fd_sc_hd__decap_6
XFILLER_0_21_45 VGND VGND VPWR VPWR sky130_fd_sc_hd__decap_8
X_307_ _098_ _099_ VGND VGND VPWR VPWR _100_ sky130_fd_sc_hd__and2b_1
XFILLER_0_1_55 VGND VGND VPWR VPWR sky130_fd_sc_hd__fill_1
Xhold13 net61 VGND VGND VPWR VPWR net79 sky130_fd_sc_hd__dlygate4sd3_1
XFILLER_0_15_111 VGND VGND VPWR VPWR sky130_fd_sc_hd__fill_1
XTAP_TAPCELL_ROW_10_81 VGND VPWR sky130_fd_sc_hd__tapvpwrvgnd_1
XTAP_TAPCELL_ROW_6_71 VGND VPWR sky130_fd_sc_hd__tapvpwrvgnd_1
XFILLER_0_8_108 VGND VPWR VPWR VGND sky130_ef_sc_hd__decap_12
Xoutput58 net58 VGND VGND VPWR VPWR product[30] sky130_fd_sc_hd__clkbuf_4
Xoutput47 net47 VGND VGND VPWR VPWR product[20] sky130_fd_sc_hd__clkbuf_4
Xoutput36 net36 VGND VGND VPWR VPWR product[10] sky130_fd_sc_hd__clkbuf_4
XFILLER_0_7_87 VGND VGND VPWR VPWR sky130_fd_sc_hd__fill_2
XFILLER_0_7_3 VGND VGND VPWR VPWR sky130_fd_sc_hd__decap_3
X_486_ clknet_2_3__leaf_clk _007_ VGND VGND VPWR VPWR net48 sky130_fd_sc_hd__dfxtp_1
X_340_ _127_ _128_ VGND VGND VPWR VPWR _130_ sky130_fd_sc_hd__nor2_1
X_271_ net84 _057_ _061_ _067_ VGND VGND VPWR VPWR _003_ sky130_fd_sc_hd__o211a_1
XFILLER_0_4_44 VGND VGND VPWR VPWR sky130_fd_sc_hd__decap_4
X_469_ cnt_act\[1\] _232_ VGND VGND VPWR VPWR _233_ sky130_fd_sc_hd__and2_1
X_323_ _105_ VGND VGND VPWR VPWR _114_ sky130_fd_sc_hd__inv_2
X_254_ estado_act\[1\] _042_ VGND VGND VPWR VPWR _052_ sky130_fd_sc_hd__or2_1
XFILLER_0_10_25 VGND VGND VPWR VPWR sky130_fd_sc_hd__decap_3
XFILLER_0_19_109 VGND VGND VPWR VPWR sky130_fd_sc_hd__decap_3
X_306_ net48 net12 VGND VGND VPWR VPWR _099_ sky130_fd_sc_hd__or2_1
Xhold14 net63 VGND VGND VPWR VPWR net80 sky130_fd_sc_hd__dlygate4sd3_1
XFILLER_0_15_156 VGND VGND VPWR VPWR sky130_fd_sc_hd__fill_1
XFILLER_0_1_78 VGND VGND VPWR VPWR sky130_fd_sc_hd__fill_1
XFILLER_0_1_34 VGND VGND VPWR VPWR sky130_fd_sc_hd__fill_2
XFILLER_0_1_12 VGND VGND VPWR VPWR sky130_fd_sc_hd__fill_1
XFILLER_0_21_159 VGND VGND VPWR VPWR sky130_fd_sc_hd__fill_1
XTAP_TAPCELL_ROW_10_82 VGND VPWR sky130_fd_sc_hd__tapvpwrvgnd_1
XTAP_TAPCELL_ROW_6_72 VGND VPWR sky130_fd_sc_hd__tapvpwrvgnd_1
XTAP_TAPCELL_ROW_26_121 VGND VPWR sky130_fd_sc_hd__tapvpwrvgnd_1
Xoutput48 net48 VGND VGND VPWR VPWR product[21] sky130_fd_sc_hd__buf_2
XPHY_EDGE_ROW_1_Right_1 VGND VGND VPWR VPWR sky130_fd_sc_hd__decap_3
Xoutput59 net59 VGND VGND VPWR VPWR product[31] sky130_fd_sc_hd__clkbuf_4
Xoutput37 net37 VGND VGND VPWR VPWR product[11] sky130_fd_sc_hd__clkbuf_4
X_485_ clknet_2_2__leaf_clk _006_ VGND VGND VPWR VPWR net47 sky130_fd_sc_hd__dfxtp_1
XFILLER_0_13_36 VGND VPWR VPWR VGND sky130_ef_sc_hd__decap_12
XPHY_EDGE_ROW_19_Left_46 VGND VGND VPWR VPWR sky130_fd_sc_hd__decap_3
X_270_ net44 _054_ _064_ _066_ _045_ VGND VGND VPWR VPWR _067_ sky130_fd_sc_hd__a221o_1
XFILLER_0_4_23 VGND VGND VPWR VPWR sky130_fd_sc_hd__decap_4
XFILLER_0_4_78 VGND VGND VPWR VPWR sky130_fd_sc_hd__decap_6
X_468_ net33 _231_ _232_ VGND VGND VPWR VPWR _035_ sky130_fd_sc_hd__nor3_1
X_399_ net58 net6 _163_ _182_ _168_ VGND VGND VPWR VPWR _183_ sky130_fd_sc_hd__o221a_1
X_322_ _111_ _112_ VGND VGND VPWR VPWR _113_ sky130_fd_sc_hd__nand2_1
XFILLER_0_19_68 VGND VGND VPWR VPWR sky130_fd_sc_hd__fill_1
XFILLER_0_19_57 VGND VGND VPWR VPWR sky130_fd_sc_hd__decap_4
X_253_ net43 _048_ _050_ VGND VGND VPWR VPWR _051_ sky130_fd_sc_hd__mux2_1
XFILLER_0_10_37 VGND VGND VPWR VPWR sky130_fd_sc_hd__decap_8
X_305_ net48 net12 VGND VGND VPWR VPWR _098_ sky130_fd_sc_hd__and2_1
XFILLER_0_1_57 VGND VGND VPWR VPWR sky130_fd_sc_hd__decap_4
XPHY_EDGE_ROW_7_Left_34 VGND VGND VPWR VPWR sky130_fd_sc_hd__decap_3
Xhold15 net65 VGND VGND VPWR VPWR net81 sky130_fd_sc_hd__dlygate4sd3_1
XTAP_TAPCELL_ROW_10_83 VGND VPWR sky130_fd_sc_hd__tapvpwrvgnd_1
XFILLER_0_12_149 VGND VGND VPWR VPWR sky130_fd_sc_hd__decap_3
XTAP_TAPCELL_ROW_6_73 VGND VPWR sky130_fd_sc_hd__tapvpwrvgnd_1
Xoutput38 net38 VGND VGND VPWR VPWR product[12] sky130_fd_sc_hd__clkbuf_4
XTAP_TAPCELL_ROW_26_122 VGND VPWR sky130_fd_sc_hd__tapvpwrvgnd_1
Xoutput49 net49 VGND VGND VPWR VPWR product[22] sky130_fd_sc_hd__clkbuf_4
XTAP_TAPCELL_ROW_17_100 VGND VPWR sky130_fd_sc_hd__tapvpwrvgnd_1
Xclkbuf_0_clk clk VGND VGND VPWR VPWR clknet_0_clk sky130_fd_sc_hd__clkbuf_16
XPHY_EDGE_ROW_24_Right_24 VGND VGND VPWR VPWR sky130_fd_sc_hd__decap_3
XTAP_TAPCELL_ROW_23_114 VGND VPWR sky130_fd_sc_hd__tapvpwrvgnd_1
XFILLER_0_23_3 VGND VPWR VPWR VGND sky130_ef_sc_hd__decap_12
XPHY_EDGE_ROW_15_Right_15 VGND VGND VPWR VPWR sky130_fd_sc_hd__decap_3
XFILLER_0_13_48 VGND VGND VPWR VPWR sky130_fd_sc_hd__decap_3
X_484_ clknet_2_0__leaf_clk _005_ VGND VGND VPWR VPWR net45 sky130_fd_sc_hd__dfxtp_1
XTAP_TAPCELL_ROW_20_106 VGND VPWR sky130_fd_sc_hd__tapvpwrvgnd_1
XPHY_EDGE_ROW_20_Left_47 VGND VGND VPWR VPWR sky130_fd_sc_hd__decap_3
XFILLER_0_4_68 VGND VGND VPWR VPWR sky130_fd_sc_hd__decap_6
X_467_ cnt_act\[0\] _056_ _047_ VGND VGND VPWR VPWR _232_ sky130_fd_sc_hd__and3_1
X_398_ _157_ _169_ VGND VGND VPWR VPWR _182_ sky130_fd_sc_hd__or2b_1
X_321_ net50 net14 VGND VGND VPWR VPWR _112_ sky130_fd_sc_hd__nand2_1
X_252_ _049_ VGND VGND VPWR VPWR _050_ sky130_fd_sc_hd__clkbuf_4
XFILLER_0_24_103 VGND VGND VPWR VPWR sky130_fd_sc_hd__fill_1
X_304_ _097_ VGND VGND VPWR VPWR _006_ sky130_fd_sc_hd__clkbuf_1
XPHY_EDGE_ROW_23_Left_50 VGND VGND VPWR VPWR sky130_fd_sc_hd__decap_3
Xhold16 net46 VGND VGND VPWR VPWR net82 sky130_fd_sc_hd__dlygate4sd3_1
XFILLER_0_12_139 VGND VGND VPWR VPWR sky130_fd_sc_hd__fill_1
Xoutput39 net39 VGND VGND VPWR VPWR product[13] sky130_fd_sc_hd__clkbuf_4
XFILLER_0_7_111 VGND VGND VPWR VPWR sky130_fd_sc_hd__fill_1
XTAP_TAPCELL_ROW_26_123 VGND VPWR sky130_fd_sc_hd__tapvpwrvgnd_1
XFILLER_0_4_125 VGND VGND VPWR VPWR sky130_fd_sc_hd__fill_2
XFILLER_0_7_46 VGND VGND VPWR VPWR sky130_fd_sc_hd__decap_3
XFILLER_0_7_57 VGND VGND VPWR VPWR sky130_fd_sc_hd__fill_2
XTAP_TAPCELL_ROW_23_115 VGND VPWR sky130_fd_sc_hd__tapvpwrvgnd_1
X_483_ clknet_2_2__leaf_clk _004_ VGND VGND VPWR VPWR net44 sky130_fd_sc_hd__dfxtp_1
XTAP_TAPCELL_ROW_20_107 VGND VPWR sky130_fd_sc_hd__tapvpwrvgnd_1
XFILLER_0_1_139 VGND VPWR VPWR VGND sky130_ef_sc_hd__decap_12
XTAP_TAPCELL_ROW_3_64 VGND VPWR sky130_fd_sc_hd__tapvpwrvgnd_1
XFILLER_0_24_26 VGND VGND VPWR VPWR sky130_fd_sc_hd__fill_2
Xclkbuf_2_0__f_clk clknet_0_clk VGND VGND VPWR VPWR clknet_2_0__leaf_clk sky130_fd_sc_hd__clkbuf_16
X_466_ _042_ _057_ net70 VGND VGND VPWR VPWR _231_ sky130_fd_sc_hd__a21oi_1
X_397_ _180_ VGND VGND VPWR VPWR _181_ sky130_fd_sc_hd__inv_2
X_320_ net50 net14 VGND VGND VPWR VPWR _111_ sky130_fd_sc_hd__or2_1
X_251_ estado_act\[1\] _042_ VGND VGND VPWR VPWR _049_ sky130_fd_sc_hd__nor2_2
XTAP_TAPCELL_ROW_0_54 VGND VPWR sky130_fd_sc_hd__tapvpwrvgnd_1
XFILLER_0_10_17 VGND VGND VPWR VPWR sky130_fd_sc_hd__decap_8
X_449_ net36 _219_ _044_ VGND VGND VPWR VPWR _220_ sky130_fd_sc_hd__mux2_1
X_518_ clknet_2_1__leaf_clk _039_ VGND VGND VPWR VPWR cnt_act\[4\] sky130_fd_sc_hd__dfxtp_1
XFILLER_0_18_112 VGND VGND VPWR VPWR sky130_fd_sc_hd__fill_2
X_303_ _061_ _096_ VGND VGND VPWR VPWR _097_ sky130_fd_sc_hd__and2_1
Xhold17 net62 VGND VGND VPWR VPWR net83 sky130_fd_sc_hd__dlygate4sd3_1
XFILLER_0_15_148 VGND VGND VPWR VPWR sky130_fd_sc_hd__decap_8
XFILLER_0_16_27 VGND VGND VPWR VPWR sky130_fd_sc_hd__fill_1
XTAP_TAPCELL_ROW_26_124 VGND VPWR sky130_fd_sc_hd__tapvpwrvgnd_1
XPHY_EDGE_ROW_5_Right_5 VGND VGND VPWR VPWR sky130_fd_sc_hd__decap_3
X_482_ clknet_2_2__leaf_clk _003_ VGND VGND VPWR VPWR net43 sky130_fd_sc_hd__dfxtp_1
XTAP_TAPCELL_ROW_3_65 VGND VPWR sky130_fd_sc_hd__tapvpwrvgnd_1
XTAP_TAPCELL_ROW_20_108 VGND VPWR sky130_fd_sc_hd__tapvpwrvgnd_1
XFILLER_0_24_49 VGND VGND VPWR VPWR sky130_fd_sc_hd__decap_4
X_465_ _230_ VGND VGND VPWR VPWR _034_ sky130_fd_sc_hd__clkbuf_1
X_396_ net58 net6 VGND VGND VPWR VPWR _180_ sky130_fd_sc_hd__and2_1
XFILLER_0_14_93 VGND VGND VPWR VPWR sky130_fd_sc_hd__fill_2
XFILLER_0_4_59 VGND VGND VPWR VPWR sky130_fd_sc_hd__fill_1
X_250_ net42 net1 VGND VGND VPWR VPWR _048_ sky130_fd_sc_hd__nand2_1
XTAP_TAPCELL_ROW_0_55 VGND VPWR sky130_fd_sc_hd__tapvpwrvgnd_1
XFILLER_0_19_49 VGND VGND VPWR VPWR sky130_fd_sc_hd__decap_6
X_448_ net37 net18 _176_ VGND VGND VPWR VPWR _219_ sky130_fd_sc_hd__mux2_1
X_517_ clknet_2_1__leaf_clk _038_ VGND VGND VPWR VPWR cnt_act\[3\] sky130_fd_sc_hd__dfxtp_1
X_379_ net56 _054_ _162_ _164_ VGND VGND VPWR VPWR _165_ sky130_fd_sc_hd__a22o_1
XFILLER_0_18_157 VGND VGND VPWR VPWR sky130_fd_sc_hd__decap_3
XFILLER_0_18_135 VGND VGND VPWR VPWR sky130_fd_sc_hd__decap_4
XFILLER_0_24_149 VGND VGND VPWR VPWR sky130_fd_sc_hd__fill_2
X_302_ net47 _095_ _057_ VGND VGND VPWR VPWR _096_ sky130_fd_sc_hd__mux2_1
Xhold18 net43 VGND VGND VPWR VPWR net84 sky130_fd_sc_hd__dlygate4sd3_1
XFILLER_0_12_119 VGND VGND VPWR VPWR sky130_fd_sc_hd__fill_2
XTAP_TAPCELL_ROW_26_125 VGND VPWR sky130_fd_sc_hd__tapvpwrvgnd_1
XFILLER_0_7_26 VGND VPWR VPWR VGND sky130_ef_sc_hd__decap_12
XTAP_TAPCELL_ROW_16_96 VGND VPWR sky130_fd_sc_hd__tapvpwrvgnd_1
XPHY_EDGE_ROW_20_Right_20 VGND VGND VPWR VPWR sky130_fd_sc_hd__decap_3
X_481_ clknet_2_2__leaf_clk _002_ VGND VGND VPWR VPWR net42 sky130_fd_sc_hd__dfxtp_1
XFILLER_0_13_18 VGND VGND VPWR VPWR sky130_fd_sc_hd__fill_2
XPHY_EDGE_ROW_11_Right_11 VGND VGND VPWR VPWR sky130_fd_sc_hd__decap_3
X_464_ net85 _229_ _044_ VGND VGND VPWR VPWR _230_ sky130_fd_sc_hd__mux2_1
XFILLER_0_14_61 VGND VGND VPWR VPWR sky130_fd_sc_hd__decap_4
XFILLER_0_4_27 VGND VGND VPWR VPWR sky130_fd_sc_hd__fill_1
X_395_ net72 _054_ VGND VGND VPWR VPWR _179_ sky130_fd_sc_hd__nand2_1
XFILLER_0_19_39 VGND VGND VPWR VPWR sky130_fd_sc_hd__fill_1
XTAP_TAPCELL_ROW_0_56 VGND VPWR sky130_fd_sc_hd__tapvpwrvgnd_1
X_516_ clknet_2_1__leaf_clk _037_ VGND VGND VPWR VPWR cnt_act\[2\] sky130_fd_sc_hd__dfxtp_1
X_447_ _218_ VGND VGND VPWR VPWR _028_ sky130_fd_sc_hd__clkbuf_1
X_378_ _053_ _163_ VGND VGND VPWR VPWR _164_ sky130_fd_sc_hd__nor2_1
XFILLER_0_24_139 VGND VGND VPWR VPWR sky130_fd_sc_hd__fill_1
XFILLER_0_21_18 VGND VGND VPWR VPWR sky130_fd_sc_hd__decap_8
X_301_ net48 _054_ _093_ _094_ VGND VGND VPWR VPWR _095_ sky130_fd_sc_hd__a22o_1
Xhold19 net41 VGND VGND VPWR VPWR net85 sky130_fd_sc_hd__dlygate4sd3_1
XFILLER_0_16_29 VGND VGND VPWR VPWR sky130_fd_sc_hd__decap_3
XFILLER_0_18_9 VGND VGND VPWR VPWR sky130_fd_sc_hd__fill_2
XPHY_EDGE_ROW_11_Left_38 VGND VGND VPWR VPWR sky130_fd_sc_hd__decap_3
XTAP_TAPCELL_ROW_16_97 VGND VPWR sky130_fd_sc_hd__tapvpwrvgnd_1
XFILLER_0_7_38 VGND VGND VPWR VPWR sky130_fd_sc_hd__decap_8
X_480_ clknet_2_1__leaf_clk _001_ VGND VGND VPWR VPWR estado_act\[1\] sky130_fd_sc_hd__dfxtp_1
XPHY_EDGE_ROW_14_Left_41 VGND VGND VPWR VPWR sky130_fd_sc_hd__decap_3
XFILLER_0_8_92 VGND VPWR VPWR VGND sky130_ef_sc_hd__decap_12
XFILLER_0_24_18 VGND VGND VPWR VPWR sky130_fd_sc_hd__decap_8
X_463_ net42 net23 _176_ VGND VGND VPWR VPWR _229_ sky130_fd_sc_hd__mux2_1
X_394_ net74 _045_ VGND VGND VPWR VPWR _178_ sky130_fd_sc_hd__nand2_1
X_377_ net54 net3 _145_ _160_ _159_ VGND VGND VPWR VPWR _163_ sky130_fd_sc_hd__o221a_2
XTAP_TAPCELL_ROW_0_57 VGND VPWR sky130_fd_sc_hd__tapvpwrvgnd_1
X_446_ net66 _217_ _044_ VGND VGND VPWR VPWR _218_ sky130_fd_sc_hd__mux2_1